
     RDKit          3D

 55 58  0  0  0  0  0  0  0  0999 V2000
   -0.6773   -3.7634    1.8256 O   0  0  0  0  0  0  0  0  0  0  0  0
   -1.4169   -3.9035    0.8154 C   0  0  0  0  0  0  0  0  0  0  0  0
   -1.5813   -2.8150   -0.1659 C   0  0  0  0  0  0  0  0  0  0  0  0
   -2.4131   -3.0136   -1.2843 C   0  0  0  0  0  0  0  0  0  0  0  0
   -2.5876   -2.0006   -2.2332 C   0  0  0  0  0  0  0  0  0  0  0  0
   -1.9233   -0.7852   -2.0662 C   0  0  0  0  0  0  0  0  0  0  0  0
   -1.0869   -0.5657   -0.9514 C   0  0  0  0  0  0  0  0  0  0  0  0
   -0.9189   -1.5830    0.0021 C   0  0  0  0  0  0  0  0  0  0  0  0
   -0.4558    0.8392   -0.9303 C   0  0  1  0  0  0  0  0  0  0  0  0
    0.2021    1.0057   -2.3059 C   0  0  0  0  0  0  0  0  0  0  0  0
   -0.6059    0.7744   -3.3648 C   0  0  0  0  0  0  0  0  0  0  0  0
   -2.0386    0.3982   -3.0114 C   0  0  2  0  0  0  0  0  0  0  0  0
   -2.6134    1.5664   -2.1484 C   0  0  1  0  0  0  0  0  0  0  0  0
   -1.6537    1.8583   -0.9196 C   0  0  1  0  0  0  0  0  0  0  0  0
   -2.3790    1.7412    0.3064 O   0  0  0  0  0  0  0  0  0  0  0  0
   -3.3036    2.6914    0.7493 C   0  0  0  0  0  0  0  0  0  0  0  0
   -3.5393    3.7286    0.0719 O   0  0  0  0  0  0  0  0  0  0  0  0
   -3.9712    2.5007    2.0680 C   0  0  0  0  0  0  0  0  0  0  0  0
   -2.8273    2.7193   -2.9256 O   0  0  0  0  0  0  0  0  0  0  0  0
    0.5673    1.1073    0.1998 C   0  0  0  0  0  0  0  0  0  0  0  0
    1.6210    0.1447    0.1194 O   0  0  0  0  0  0  0  0  0  0  0  0
    2.9740    0.4259    0.3411 C   0  0  0  0  0  0  0  0  0  0  0  0
    3.3600    1.6157    0.5064 O   0  0  0  0  0  0  0  0  0  0  0  0
    3.9529   -0.6822    0.3610 C   0  0  0  0  0  0  0  0  0  0  0  0
    3.5232   -2.0101    0.1809 C   0  0  0  0  0  0  0  0  0  0  0  0
    4.4457   -3.0607    0.2014 C   0  0  0  0  0  0  0  0  0  0  0  0
    5.8029   -2.7982    0.4013 C   0  0  0  0  0  0  0  0  0  0  0  0
    6.2409   -1.4842    0.5815 C   0  0  0  0  0  0  0  0  0  0  0  0
    5.3229   -0.4294    0.5623 C   0  0  0  0  0  0  0  0  0  0  0  0
   -0.0755    1.0087    1.4708 O   0  0  0  0  0  0  0  0  0  0  0  0
    0.4665    1.4964    2.6627 C   0  0  0  0  0  0  0  0  0  0  0  0
    1.5541    2.1327    2.6687 O   0  0  0  0  0  0  0  0  0  0  0  0
   -0.2917    1.3191    3.9334 C   0  0  0  0  0  0  0  0  0  0  0  0
   -1.9360   -4.8429    0.6734 H   0  0  0  0  0  0  0  0  0  0  0  0
   -2.9294   -3.9559   -1.4216 H   0  0  0  0  0  0  0  0  0  0  0  0
   -3.2328   -2.1619   -3.0873 H   0  0  0  0  0  0  0  0  0  0  0  0
   -0.2839   -1.4312    0.8626 H   0  0  0  0  0  0  0  0  0  0  0  0
    1.2409    1.2939   -2.4366 H   0  0  0  0  0  0  0  0  0  0  0  0
   -0.2590    0.8652   -4.3887 H   0  0  0  0  0  0  0  0  0  0  0  0
   -2.6557    0.1838   -3.9104 H   0  0  0  0  0  0  0  0  0  0  0  0
   -3.6079    1.2434   -1.7671 H   0  0  0  0  0  0  0  0  0  0  0  0
   -1.2351    2.8885   -0.9913 H   0  0  0  0  0  0  0  0  0  0  0  0
   -5.0007    2.9158    2.0398 H   0  0  0  0  0  0  0  0  0  0  0  0
   -3.3865    3.0195    2.8557 H   0  0  0  0  0  0  0  0  0  0  0  0
   -4.0266    1.4187    2.3100 H   0  0  0  0  0  0  0  0  0  0  0  0
   -1.9436    3.0532   -3.2285 H   0  0  0  0  0  0  0  0  0  0  0  0
    0.9606    2.1402    0.0619 H   0  0  0  0  0  0  0  0  0  0  0  0
    2.4761   -2.2387    0.0252 H   0  0  0  0  0  0  0  0  0  0  0  0
    4.1075   -4.0794    0.0623 H   0  0  0  0  0  0  0  0  0  0  0  0
    6.5152   -3.6131    0.4168 H   0  0  0  0  0  0  0  0  0  0  0  0
    7.2929   -1.2823    0.7367 H   0  0  0  0  0  0  0  0  0  0  0  0
    5.6851    0.5811    0.7047 H   0  0  0  0  0  0  0  0  0  0  0  0
    0.4104    1.1418    4.7751 H   0  0  0  0  0  0  0  0  0  0  0  0
   -0.9763    0.4493    3.8472 H   0  0  0  0  0  0  0  0  0  0  0  0
   -0.8886    2.2321    4.1375 H   0  0  0  0  0  0  0  0  0  0  0  0
  1  2  2  0
  2  3  1  0
  3  4  2  0
  4  5  1  0
  5  6  2  0
  6  7  1  0
  7  8  2  0
  7  9  1  0
  9 10  1  0
 10 11  2  0
 11 12  1  0
 12 13  1  0
 13 14  1  0
 14 15  1  0
 15 16  1  0
 16 17  2  0
 16 18  1  0
 13 19  1  0
  9 20  1  1
 20 21  1  0
 21 22  1  0
 22 23  2  0
 22 24  1  0
 24 25  2  0
 25 26  1  0
 26 27  2  0
 27 28  1  0
 28 29  2  0
 20 30  1  0
 30 31  1  0
 31 32  2  0
 31 33  1  0
  8  3  1  0
 14  9  1  0
 29 24  1  0
 12  6  1  0
  2 34  1  0
  4 35  1  0
  5 36  1  0
  8 37  1  0
 10 38  1  0
 11 39  1  0
 12 40  1  6
 13 41  1  1
 14 42  1  6
 18 43  1  0
 18 44  1  0
 18 45  1  0
 19 46  1  0
 20 47  1  0
 25 48  1  0
 26 49  1  0
 27 50  1  0
 28 51  1  0
 29 52  1  0
 33 53  1  0
 33 54  1  0
 33 55  1  0
M  END
$$$$
