
     RDKit          3D

 38 39  0  0  0  0  0  0  0  0999 V2000
    0.1872   -0.1669   -3.7053 C   0  0  0  0  0  0  0  0  0  0  0  0
   -0.6034    0.4132   -2.5828 C   0  0  0  0  0  0  0  0  0  0  0  0
   -0.9060    1.6374   -2.5989 O   0  0  0  0  0  0  0  0  0  0  0  0
   -0.9518   -0.3970   -1.4966 O   0  0  0  0  0  0  0  0  0  0  0  0
   -1.7047    0.0700   -0.3781 C   0  0  1  0  0  0  0  0  0  0  0  0
   -3.1479    0.2790   -0.7769 C   0  0  0  0  0  0  0  0  0  0  0  0
   -4.0524   -0.7046   -0.6806 C   0  0  0  0  0  0  0  0  0  0  0  0
   -3.6566   -2.0638   -0.1636 C   0  0  2  0  0  0  0  0  0  0  0  0
   -2.6871   -1.9321    1.0317 C   0  0  1  0  0  0  0  0  0  0  0  0
   -1.5749   -0.9316    0.7556 C   0  0  0  0  0  0  0  0  0  0  0  0
   -0.4570   -0.9744    1.4930 C   0  0  0  0  0  0  0  0  0  0  0  0
    0.6044   -0.1059    1.2230 O   0  0  0  0  0  0  0  0  0  0  0  0
    1.7984   -0.0949    1.9513 C   0  0  0  0  0  0  0  0  0  0  0  0
    1.9478   -0.8644    2.9409 O   0  0  0  0  0  0  0  0  0  0  0  0
    2.8858    0.8260    1.5544 C   0  0  0  0  0  0  0  0  0  0  0  0
    2.7344    1.6583    0.4296 C   0  0  0  0  0  0  0  0  0  0  0  0
    3.7606    2.5297    0.0514 C   0  0  0  0  0  0  0  0  0  0  0  0
    4.9455    2.5799    0.7893 C   0  0  0  0  0  0  0  0  0  0  0  0
    5.1073    1.7579    1.9071 C   0  0  0  0  0  0  0  0  0  0  0  0
    4.0850    0.8835    2.2894 C   0  0  0  0  0  0  0  0  0  0  0  0
   -3.3813   -1.5823    2.2037 O   0  0  0  0  0  0  0  0  0  0  0  0
   -3.0308   -2.7892   -1.1906 O   0  0  0  0  0  0  0  0  0  0  0  0
    0.0081   -1.2609   -3.7680 H   0  0  0  0  0  0  0  0  0  0  0  0
   -0.1136    0.3007   -4.6664 H   0  0  0  0  0  0  0  0  0  0  0  0
    1.2678    0.0164   -3.5296 H   0  0  0  0  0  0  0  0  0  0  0  0
   -1.3048    1.0520   -0.0397 H   0  0  0  0  0  0  0  0  0  0  0  0
   -3.4553    1.2472   -1.1605 H   0  0  0  0  0  0  0  0  0  0  0  0
   -5.0856   -0.5149   -0.9544 H   0  0  0  0  0  0  0  0  0  0  0  0
   -4.5688   -2.6096    0.1722 H   0  0  0  0  0  0  0  0  0  0  0  0
   -2.2328   -2.9341    1.1989 H   0  0  0  0  0  0  0  0  0  0  0  0
   -0.3742   -1.6951    2.2987 H   0  0  0  0  0  0  0  0  0  0  0  0
    1.8258    1.6357   -0.1597 H   0  0  0  0  0  0  0  0  0  0  0  0
    3.6370    3.1659   -0.8157 H   0  0  0  0  0  0  0  0  0  0  0  0
    5.7385    3.2547    0.4940 H   0  0  0  0  0  0  0  0  0  0  0  0
    6.0263    1.7973    2.4775 H   0  0  0  0  0  0  0  0  0  0  0  0
    4.2328    0.2558    3.1592 H   0  0  0  0  0  0  0  0  0  0  0  0
   -3.7602   -0.6740    2.0705 H   0  0  0  0  0  0  0  0  0  0  0  0
   -3.7440   -3.0653   -1.8240 H   0  0  0  0  0  0  0  0  0  0  0  0
  1  2  1  0
  2  3  2  0
  2  4  1  0
  4  5  1  0
  5  6  1  0
  6  7  2  0
  7  8  1  0
  8  9  1  0
  9 10  1  0
 10 11  2  0
 11 12  1  0
 12 13  1  0
 13 14  2  0
 13 15  1  0
 15 16  2  0
 16 17  1  0
 17 18  2  0
 18 19  1  0
 19 20  2  0
  9 21  1  0
  8 22  1  0
 10  5  1  0
 20 15  1  0
  1 23  1  0
  1 24  1  0
  1 25  1  0
  5 26  1  1
  6 27  1  0
  7 28  1  0
  8 29  1  1
  9 30  1  1
 11 31  1  0
 16 32  1  0
 17 33  1  0
 18 34  1  0
 19 35  1  0
 20 36  1  0
 21 37  1  0
 22 38  1  0
M  END
$$$$
