
     RDKit          3D

 44 45  0  0  0  0  0  0  0  0999 V2000
   -1.4777   -4.2045    2.1451 C   0  0  0  0  0  0  0  0  0  0  0  0
   -1.2582   -2.8403    1.8652 O   0  0  0  0  0  0  0  0  0  0  0  0
   -2.0312   -2.4143    0.7581 C   0  0  1  0  0  0  0  0  0  0  0  0
   -3.4016   -2.0128    1.2328 C   0  0  0  0  0  0  0  0  0  0  0  0
   -3.6632   -0.7833    1.6920 C   0  0  0  0  0  0  0  0  0  0  0  0
   -2.6337    0.3246    1.7407 C   0  0  2  0  0  0  0  0  0  0  0  0
   -1.2529   -0.0376    1.1073 C   0  0  1  0  0  0  0  0  0  0  0  0
   -1.3415   -1.2070    0.0774 C   0  0  2  0  0  0  0  0  0  0  0  0
   -2.1184   -0.8265   -1.0338 O   0  0  0  0  0  0  0  0  0  0  0  0
    0.0645   -1.6473   -0.3963 C   0  0  0  0  0  0  0  0  0  0  0  0
    0.7512   -0.5676   -1.0199 O   0  0  0  0  0  0  0  0  0  0  0  0
    2.1046   -0.6432   -1.3851 C   0  0  0  0  0  0  0  0  0  0  0  0
    2.7537   -1.7190   -1.2188 O   0  0  0  0  0  0  0  0  0  0  0  0
    2.7797    0.5432   -1.9547 C   0  0  0  0  0  0  0  0  0  0  0  0
    2.0287    1.6584   -2.3691 C   0  0  0  0  0  0  0  0  0  0  0  0
    2.6697    2.7834   -2.9021 C   0  0  0  0  0  0  0  0  0  0  0  0
    4.0623    2.8082   -3.0229 C   0  0  0  0  0  0  0  0  0  0  0  0
    4.8189    1.7062   -2.6122 C   0  0  0  0  0  0  0  0  0  0  0  0
    4.1830    0.5771   -2.0828 C   0  0  0  0  0  0  0  0  0  0  0  0
   -0.6822    1.1225    0.4863 O   0  0  0  0  0  0  0  0  0  0  0  0
   -0.1835    2.2119    1.1947 C   0  0  0  0  0  0  0  0  0  0  0  0
   -0.1201    2.1887    2.4579 O   0  0  0  0  0  0  0  0  0  0  0  0
    0.3026    3.4195    0.4633 C   0  0  0  0  0  0  0  0  0  0  0  0
   -2.4371    0.6915    3.0818 O   0  0  0  0  0  0  0  0  0  0  0  0
   -0.8852   -4.4803    3.0364 H   0  0  0  0  0  0  0  0  0  0  0  0
   -2.5426   -4.3930    2.3745 H   0  0  0  0  0  0  0  0  0  0  0  0
   -1.1368   -4.8487    1.3043 H   0  0  0  0  0  0  0  0  0  0  0  0
   -2.1440   -3.2178   -0.0105 H   0  0  0  0  0  0  0  0  0  0  0  0
   -4.1975   -2.7476    1.2080 H   0  0  0  0  0  0  0  0  0  0  0  0
   -4.6699   -0.5625    2.0325 H   0  0  0  0  0  0  0  0  0  0  0  0
   -3.0600    1.1873    1.1784 H   0  0  0  0  0  0  0  0  0  0  0  0
   -0.5654   -0.3657    1.9205 H   0  0  0  0  0  0  0  0  0  0  0  0
   -1.6688   -0.0708   -1.4735 H   0  0  0  0  0  0  0  0  0  0  0  0
   -0.0248   -2.4854   -1.1220 H   0  0  0  0  0  0  0  0  0  0  0  0
    0.6602   -2.0034    0.4701 H   0  0  0  0  0  0  0  0  0  0  0  0
    0.9495    1.6593   -2.2881 H   0  0  0  0  0  0  0  0  0  0  0  0
    2.0866    3.6376   -3.2199 H   0  0  0  0  0  0  0  0  0  0  0  0
    4.5559    3.6832   -3.4321 H   0  0  0  0  0  0  0  0  0  0  0  0
    5.8990    1.7278   -2.7018 H   0  0  0  0  0  0  0  0  0  0  0  0
    4.7880   -0.2634   -1.7636 H   0  0  0  0  0  0  0  0  0  0  0  0
    1.4035    3.3864    0.3930 H   0  0  0  0  0  0  0  0  0  0  0  0
   -0.1347    3.4535   -0.5557 H   0  0  0  0  0  0  0  0  0  0  0  0
    0.0058    4.3478    0.9999 H   0  0  0  0  0  0  0  0  0  0  0  0
   -3.2364    1.2235    3.3443 H   0  0  0  0  0  0  0  0  0  0  0  0
  1  2  1  0
  2  3  1  0
  3  4  1  0
  4  5  2  0
  5  6  1  0
  6  7  1  0
  7  8  1  0
  8  9  1  6
  8 10  1  0
 10 11  1  0
 11 12  1  0
 12 13  2  0
 12 14  1  0
 14 15  2  0
 15 16  1  0
 16 17  2  0
 17 18  1  0
 18 19  2  0
  7 20  1  0
 20 21  1  0
 21 22  2  0
 21 23  1  0
  6 24  1  0
  8  3  1  0
 19 14  1  0
  1 25  1  0
  1 26  1  0
  1 27  1  0
  3 28  1  6
  4 29  1  0
  5 30  1  0
  6 31  1  6
  7 32  1  1
  9 33  1  0
 10 34  1  0
 10 35  1  0
 15 36  1  0
 16 37  1  0
 17 38  1  0
 18 39  1  0
 19 40  1  0
 23 41  1  0
 23 42  1  0
 23 43  1  0
 24 44  1  0
M  END
$$$$
