
     RDKit          3D

 43 44  0  0  0  0  0  0  0  0999 V2000
    1.2808    3.5983    1.2209 C   0  0  0  0  0  0  0  0  0  0  0  0
    0.0229    3.0328    0.6565 C   0  0  0  0  0  0  0  0  0  0  0  0
   -0.7388    3.7688   -0.0248 O   0  0  0  0  0  0  0  0  0  0  0  0
   -0.2971    1.6917    0.8893 O   0  0  0  0  0  0  0  0  0  0  0  0
   -1.4399    1.0372    0.3311 C   0  0  2  0  0  0  0  0  0  0  0  0
   -2.6765    1.4987    1.0712 C   0  0  0  0  0  0  0  0  0  0  0  0
   -3.7575    0.7207    1.1819 C   0  0  0  0  0  0  0  0  0  0  0  0
   -3.7814   -0.6449    0.5565 C   0  0  1  0  0  0  0  0  0  0  0  0
   -2.4399   -1.3694    0.7900 C   0  0  2  0  0  0  0  0  0  0  0  0
   -1.2624   -0.4781    0.4146 C   0  0  0  0  0  0  0  0  0  0  0  0
   -0.0665   -1.0431    0.1718 C   0  0  0  0  0  0  0  0  0  0  0  0
    1.0301   -0.2690   -0.2171 O   0  0  0  0  0  0  0  0  0  0  0  0
    2.3224   -0.7773   -0.3756 C   0  0  0  0  0  0  0  0  0  0  0  0
    2.5535   -2.0045   -0.1903 O   0  0  0  0  0  0  0  0  0  0  0  0
    3.4213    0.1374   -0.7490 C   0  0  0  0  0  0  0  0  0  0  0  0
    4.7623   -0.2752   -0.6588 C   0  0  0  0  0  0  0  0  0  0  0  0
    5.7956    0.5945   -1.0212 C   0  0  0  0  0  0  0  0  0  0  0  0
    5.5002    1.8809   -1.4812 C   0  0  0  0  0  0  0  0  0  0  0  0
    4.1714    2.2994   -1.5800 C   0  0  0  0  0  0  0  0  0  0  0  0
    3.1346    1.4350   -1.2170 C   0  0  0  0  0  0  0  0  0  0  0  0
   -2.4136   -2.5657    0.0015 O   0  0  0  0  0  0  0  0  0  0  0  0
   -2.9854   -3.7766    0.4047 C   0  0  0  0  0  0  0  0  0  0  0  0
   -3.4204   -3.9275    1.5791 O   0  0  0  0  0  0  0  0  0  0  0  0
   -3.0303   -4.9175   -0.5534 C   0  0  0  0  0  0  0  0  0  0  0  0
   -4.8310   -1.3986    1.1017 O   0  0  0  0  0  0  0  0  0  0  0  0
    1.8915    4.0382    0.4044 H   0  0  0  0  0  0  0  0  0  0  0  0
    1.8683    2.7978    1.7140 H   0  0  0  0  0  0  0  0  0  0  0  0
    1.0370    4.3828    1.9673 H   0  0  0  0  0  0  0  0  0  0  0  0
   -1.5379    1.3084   -0.7420 H   0  0  0  0  0  0  0  0  0  0  0  0
   -2.6979    2.4909    1.5130 H   0  0  0  0  0  0  0  0  0  0  0  0
   -4.6173    1.0783    1.7400 H   0  0  0  0  0  0  0  0  0  0  0  0
   -3.9263   -0.5270   -0.5425 H   0  0  0  0  0  0  0  0  0  0  0  0
   -2.3290   -1.6230    1.8702 H   0  0  0  0  0  0  0  0  0  0  0  0
    0.0531   -2.1143    0.2816 H   0  0  0  0  0  0  0  0  0  0  0  0
    5.0124   -1.2644   -0.3030 H   0  0  0  0  0  0  0  0  0  0  0  0
    6.8260    0.2680   -0.9522 H   0  0  0  0  0  0  0  0  0  0  0  0
    6.3006    2.5507   -1.7685 H   0  0  0  0  0  0  0  0  0  0  0  0
    3.9432    3.2922   -1.9502 H   0  0  0  0  0  0  0  0  0  0  0  0
    2.1111    1.7740   -1.3180 H   0  0  0  0  0  0  0  0  0  0  0  0
   -3.1867   -4.5357   -1.5865 H   0  0  0  0  0  0  0  0  0  0  0  0
   -3.8660   -5.6029   -0.2955 H   0  0  0  0  0  0  0  0  0  0  0  0
   -2.0712   -5.4741   -0.5139 H   0  0  0  0  0  0  0  0  0  0  0  0
   -5.6656   -1.0879    0.6636 H   0  0  0  0  0  0  0  0  0  0  0  0
  1  2  1  0
  2  3  2  0
  2  4  1  0
  4  5  1  0
  5  6  1  0
  6  7  2  0
  7  8  1  0
  8  9  1  0
  9 10  1  0
 10 11  2  0
 11 12  1  0
 12 13  1  0
 13 14  2  0
 13 15  1  0
 15 16  2  0
 16 17  1  0
 17 18  2  0
 18 19  1  0
 19 20  2  0
  9 21  1  0
 21 22  1  0
 22 23  2  0
 22 24  1  0
  8 25  1  0
 10  5  1  0
 20 15  1  0
  1 26  1  0
  1 27  1  0
  1 28  1  0
  5 29  1  6
  6 30  1  0
  7 31  1  0
  8 32  1  6
  9 33  1  1
 11 34  1  0
 16 35  1  0
 17 36  1  0
 18 37  1  0
 19 38  1  0
 20 39  1  0
 24 40  1  0
 24 41  1  0
 24 42  1  0
 25 43  1  0
M  END
$$$$
