
     RDKit          3D

 44 45  0  0  0  0  0  0  0  0999 V2000
    0.5049    3.3024   -1.0944 C   0  0  0  0  0  0  0  0  0  0  0  0
    0.1142    2.0556   -0.5620 O   0  0  0  0  0  0  0  0  0  0  0  0
   -1.0699    1.5875   -1.1898 C   0  0  2  0  0  0  0  0  0  0  0  0
   -2.2501    2.0186   -0.3472 C   0  0  0  0  0  0  0  0  0  0  0  0
   -2.7784    1.2463    0.6177 C   0  0  0  0  0  0  0  0  0  0  0  0
   -2.4214   -0.2095    0.8094 C   0  0  2  0  0  0  0  0  0  0  0  0
   -1.1031   -0.5908    0.0843 C   0  0  2  0  0  0  0  0  0  0  0  0
   -1.0290    0.0392   -1.3429 C   0  0  1  0  0  0  0  0  0  0  0  0
   -2.1673   -0.3291   -2.0952 O   0  0  0  0  0  0  0  0  0  0  0  0
    0.2521   -0.3988   -2.1156 C   0  0  0  0  0  0  0  0  0  0  0  0
    1.4524   -0.0324   -1.4324 O   0  0  0  0  0  0  0  0  0  0  0  0
    2.1876   -0.8931   -0.6075 C   0  0  0  0  0  0  0  0  0  0  0  0
    1.8918   -2.1178   -0.5403 O   0  0  0  0  0  0  0  0  0  0  0  0
    3.3201   -0.3600    0.1802 C   0  0  0  0  0  0  0  0  0  0  0  0
    4.0588   -1.1984    1.0364 C   0  0  0  0  0  0  0  0  0  0  0  0
    5.1236   -0.6847    1.7833 C   0  0  0  0  0  0  0  0  0  0  0  0
    5.4615    0.6670    1.6846 C   0  0  0  0  0  0  0  0  0  0  0  0
    4.7356    1.5079    0.8381 C   0  0  0  0  0  0  0  0  0  0  0  0
    3.6702    0.9996    0.0886 C   0  0  0  0  0  0  0  0  0  0  0  0
   -0.9031   -1.9842    0.0790 O   0  0  0  0  0  0  0  0  0  0  0  0
   -3.5198   -0.9937    0.3380 O   0  0  0  0  0  0  0  0  0  0  0  0
   -3.8877   -2.2300    0.8824 C   0  0  0  0  0  0  0  0  0  0  0  0
   -3.2808   -2.7049    1.8806 O   0  0  0  0  0  0  0  0  0  0  0  0
   -5.0429   -2.9709    0.3010 C   0  0  0  0  0  0  0  0  0  0  0  0
   -0.3112    4.0542   -1.0129 H   0  0  0  0  0  0  0  0  0  0  0  0
    1.3708    3.6800   -0.5131 H   0  0  0  0  0  0  0  0  0  0  0  0
    0.8292    3.1922   -2.1525 H   0  0  0  0  0  0  0  0  0  0  0  0
   -1.2085    2.0113   -2.2152 H   0  0  0  0  0  0  0  0  0  0  0  0
   -2.6066    3.0393   -0.4483 H   0  0  0  0  0  0  0  0  0  0  0  0
   -3.5859    1.6524    1.2198 H   0  0  0  0  0  0  0  0  0  0  0  0
   -2.2875   -0.3690    1.9023 H   0  0  0  0  0  0  0  0  0  0  0  0
   -0.2751   -0.1609    0.6899 H   0  0  0  0  0  0  0  0  0  0  0  0
   -2.0808   -1.2772   -2.3728 H   0  0  0  0  0  0  0  0  0  0  0  0
    0.2554    0.1060   -3.1053 H   0  0  0  0  0  0  0  0  0  0  0  0
    0.2388   -1.4911   -2.3225 H   0  0  0  0  0  0  0  0  0  0  0  0
    3.8137   -2.2489    1.1307 H   0  0  0  0  0  0  0  0  0  0  0  0
    5.6868   -1.3353    2.4399 H   0  0  0  0  0  0  0  0  0  0  0  0
    6.2858    1.0626    2.2638 H   0  0  0  0  0  0  0  0  0  0  0  0
    4.9985    2.5551    0.7621 H   0  0  0  0  0  0  0  0  0  0  0  0
    3.1240    1.6703   -0.5619 H   0  0  0  0  0  0  0  0  0  0  0  0
   -1.5616   -2.3955   -0.5350 H   0  0  0  0  0  0  0  0  0  0  0  0
   -5.1919   -2.6693   -0.7570 H   0  0  0  0  0  0  0  0  0  0  0  0
   -5.9607   -2.7377    0.8796 H   0  0  0  0  0  0  0  0  0  0  0  0
   -4.8526   -4.0643    0.3382 H   0  0  0  0  0  0  0  0  0  0  0  0
  1  2  1  0
  2  3  1  0
  3  4  1  0
  4  5  2  0
  5  6  1  0
  6  7  1  0
  7  8  1  0
  8  9  1  6
  8 10  1  0
 10 11  1  0
 11 12  1  0
 12 13  2  0
 12 14  1  0
 14 15  2  0
 15 16  1  0
 16 17  2  0
 17 18  1  0
 18 19  2  0
  7 20  1  0
  6 21  1  0
 21 22  1  0
 22 23  2  0
 22 24  1  0
  8  3  1  0
 19 14  1  0
  1 25  1  0
  1 26  1  0
  1 27  1  0
  3 28  1  6
  4 29  1  0
  5 30  1  0
  6 31  1  1
  7 32  1  1
  9 33  1  0
 10 34  1  0
 10 35  1  0
 15 36  1  0
 16 37  1  0
 17 38  1  0
 18 39  1  0
 19 40  1  0
 20 41  1  0
 24 42  1  0
 24 43  1  0
 24 44  1  0
M  END
$$$$
