
     RDKit          3D

 46 47  0  0  0  0  0  0  0  0999 V2000
   -0.4985    5.1368    1.9685 C   0  0  0  0  0  0  0  0  0  0  0  0
   -0.9024    3.7190    2.1872 C   0  0  0  0  0  0  0  0  0  0  0  0
   -0.6448    3.1604    3.2877 O   0  0  0  0  0  0  0  0  0  0  0  0
   -1.6174    3.0476    1.1891 O   0  0  0  0  0  0  0  0  0  0  0  0
   -1.9699    1.6633    1.2529 C   0  0  1  0  0  0  0  0  0  0  0  0
   -3.1840    1.4347    0.3856 C   0  0  0  0  0  0  0  0  0  0  0  0
   -3.4382    0.2639   -0.2225 C   0  0  0  0  0  0  0  0  0  0  0  0
   -2.4581   -0.8850   -0.2696 C   0  0  1  0  0  0  0  0  0  0  0  0
   -1.3063   -0.7174    0.7589 C   0  0  2  0  0  0  0  0  0  0  0  0
   -0.7747    0.7498    0.8380 C   0  0  2  0  0  0  0  0  0  0  0  0
    0.2348    0.8285    1.8180 O   0  0  0  0  0  0  0  0  0  0  0  0
   -0.1701    1.2412   -0.5112 C   0  0  0  0  0  0  0  0  0  0  0  0
    0.9764    0.4814   -0.8925 O   0  0  0  0  0  0  0  0  0  0  0  0
    2.2710    0.7258   -0.4166 C   0  0  0  0  0  0  0  0  0  0  0  0
    2.5021    1.7351    0.3051 O   0  0  0  0  0  0  0  0  0  0  0  0
    3.3685   -0.2007   -0.7699 C   0  0  0  0  0  0  0  0  0  0  0  0
    3.1147   -1.3284   -1.5720 C   0  0  0  0  0  0  0  0  0  0  0  0
    4.1498   -2.2084   -1.9032 C   0  0  0  0  0  0  0  0  0  0  0  0
    5.4457   -1.9731   -1.4387 C   0  0  0  0  0  0  0  0  0  0  0  0
    5.7096   -0.8570   -0.6415 C   0  0  0  0  0  0  0  0  0  0  0  0
    4.6784    0.0263   -0.3069 C   0  0  0  0  0  0  0  0  0  0  0  0
   -0.2617   -1.6372    0.5479 O   0  0  0  0  0  0  0  0  0  0  0  0
   -3.1769   -2.0907   -0.0043 O   0  0  0  0  0  0  0  0  0  0  0  0
   -2.7750   -3.3555   -0.4484 C   0  0  0  0  0  0  0  0  0  0  0  0
   -1.7969   -3.4872   -1.2329 O   0  0  0  0  0  0  0  0  0  0  0  0
   -3.5592   -4.5563   -0.0422 C   0  0  0  0  0  0  0  0  0  0  0  0
   -0.3916    5.3356    0.8815 H   0  0  0  0  0  0  0  0  0  0  0  0
    0.4733    5.3384    2.4664 H   0  0  0  0  0  0  0  0  0  0  0  0
   -1.2734    5.8111    2.3884 H   0  0  0  0  0  0  0  0  0  0  0  0
   -2.2848    1.4154    2.2915 H   0  0  0  0  0  0  0  0  0  0  0  0
   -3.9373    2.2159    0.3392 H   0  0  0  0  0  0  0  0  0  0  0  0
   -4.3571    0.1694   -0.7939 H   0  0  0  0  0  0  0  0  0  0  0  0
   -2.0525   -0.9135   -1.3047 H   0  0  0  0  0  0  0  0  0  0  0  0
   -1.7394   -0.9628    1.7551 H   0  0  0  0  0  0  0  0  0  0  0  0
   -0.1346    0.4932    2.6768 H   0  0  0  0  0  0  0  0  0  0  0  0
   -0.9213    1.1648   -1.3231 H   0  0  0  0  0  0  0  0  0  0  0  0
    0.1091    2.3155   -0.4508 H   0  0  0  0  0  0  0  0  0  0  0  0
    2.1185   -1.5321   -1.9439 H   0  0  0  0  0  0  0  0  0  0  0  0
    3.9464   -3.0738   -2.5206 H   0  0  0  0  0  0  0  0  0  0  0  0
    6.2453   -2.6556   -1.6962 H   0  0  0  0  0  0  0  0  0  0  0  0
    6.7143   -0.6759   -0.2818 H   0  0  0  0  0  0  0  0  0  0  0  0
    4.9064    0.8842    0.3132 H   0  0  0  0  0  0  0  0  0  0  0  0
   -0.0633   -1.6696   -0.4222 H   0  0  0  0  0  0  0  0  0  0  0  0
   -4.3163   -4.7842   -0.8209 H   0  0  0  0  0  0  0  0  0  0  0  0
   -2.8843   -5.4295    0.0807 H   0  0  0  0  0  0  0  0  0  0  0  0
   -4.0743   -4.3633    0.9220 H   0  0  0  0  0  0  0  0  0  0  0  0
  1  2  1  0
  2  3  2  0
  2  4  1  0
  4  5  1  0
  5  6  1  0
  6  7  2  0
  7  8  1  0
  8  9  1  0
  9 10  1  0
 10 11  1  1
 10 12  1  0
 12 13  1  0
 13 14  1  0
 14 15  2  0
 14 16  1  0
 16 17  2  0
 17 18  1  0
 18 19  2  0
 19 20  1  0
 20 21  2  0
  9 22  1  0
  8 23  1  0
 23 24  1  0
 24 25  2  0
 24 26  1  0
 10  5  1  0
 21 16  1  0
  1 27  1  0
  1 28  1  0
  1 29  1  0
  5 30  1  1
  6 31  1  0
  7 32  1  0
  8 33  1  6
  9 34  1  1
 11 35  1  0
 12 36  1  0
 12 37  1  0
 17 38  1  0
 18 39  1  0
 19 40  1  0
 20 41  1  0
 21 42  1  0
 22 43  1  0
 26 44  1  0
 26 45  1  0
 26 46  1  0
M  END
$$$$
