
     RDKit          3D

 58 60  0  0  0  0  0  0  0  0999 V2000
   -0.0476   -6.7929    1.2696 C   0  0  0  0  0  0  0  0  0  0  0  0
   -0.6507   -5.4656    1.5790 C   0  0  0  0  0  0  0  0  0  0  0  0
   -1.3846   -5.3369    2.5971 O   0  0  0  0  0  0  0  0  0  0  0  0
   -0.3612   -4.3683    0.7603 O   0  0  0  0  0  0  0  0  0  0  0  0
   -0.8959   -3.0627    0.9814 C   0  0  2  0  0  0  0  0  0  0  0  0
   -2.3538   -3.0274    0.6095 C   0  0  0  0  0  0  0  0  0  0  0  0
   -2.9538   -1.8496    0.4080 C   0  0  0  0  0  0  0  0  0  0  0  0
   -2.2332   -0.5592    0.7133 C   0  0  1  0  0  0  0  0  0  0  0  0
   -0.6987   -0.5817    0.3123 C   0  0  1  0  0  0  0  0  0  0  0  0
   -0.1580   -2.0501    0.0927 C   0  0  1  0  0  0  0  0  0  0  0  0
    1.2500   -2.1606    0.3226 O   0  0  0  0  0  0  0  0  0  0  0  0
    2.2180   -1.8674   -0.6452 C   0  0  0  0  0  0  0  0  0  0  0  0
    1.8876   -1.4199   -1.7774 O   0  0  0  0  0  0  0  0  0  0  0  0
    3.6514   -2.1570   -0.3578 C   0  0  0  0  0  0  0  0  0  0  0  0
   -0.5157    0.1429   -0.8829 O   0  0  0  0  0  0  0  0  0  0  0  0
    0.0993    0.1381    1.4401 C   0  0  0  0  0  0  0  0  0  0  0  0
    1.4183    0.5042    1.0317 O   0  0  0  0  0  0  0  0  0  0  0  0
    1.7166    1.6810    0.3296 C   0  0  0  0  0  0  0  0  0  0  0  0
    0.7948    2.4841    0.0143 O   0  0  0  0  0  0  0  0  0  0  0  0
    3.1163    1.9828   -0.0365 C   0  0  0  0  0  0  0  0  0  0  0  0
    4.1697    1.2233    0.5026 C   0  0  0  0  0  0  0  0  0  0  0  0
    5.4944    1.5010    0.1511 C   0  0  0  0  0  0  0  0  0  0  0  0
    5.7811    2.5423   -0.7351 C   0  0  0  0  0  0  0  0  0  0  0  0
    4.7432    3.3082   -1.2710 C   0  0  0  0  0  0  0  0  0  0  0  0
    3.4164    3.0330   -0.9245 C   0  0  0  0  0  0  0  0  0  0  0  0
   -2.9181    0.5064    0.0484 O   0  0  0  0  0  0  0  0  0  0  0  0
   -3.0302    1.8089    0.5528 C   0  0  0  0  0  0  0  0  0  0  0  0
   -2.7448    2.0520    1.7575 O   0  0  0  0  0  0  0  0  0  0  0  0
   -3.5032    2.8976   -0.3298 C   0  0  0  0  0  0  0  0  0  0  0  0
   -3.8019    2.6370   -1.6801 C   0  0  0  0  0  0  0  0  0  0  0  0
   -4.2379    3.6671   -2.5198 C   0  0  0  0  0  0  0  0  0  0  0  0
   -4.3787    4.9650   -2.0224 C   0  0  0  0  0  0  0  0  0  0  0  0
   -4.0849    5.2356   -0.6834 C   0  0  0  0  0  0  0  0  0  0  0  0
   -3.6490    4.2095    0.1609 C   0  0  0  0  0  0  0  0  0  0  0  0
    0.7913   -6.9913    1.9690 H   0  0  0  0  0  0  0  0  0  0  0  0
   -0.8126   -7.5903    1.3764 H   0  0  0  0  0  0  0  0  0  0  0  0
    0.3373   -6.8022    0.2278 H   0  0  0  0  0  0  0  0  0  0  0  0
   -0.7693   -2.7800    2.0504 H   0  0  0  0  0  0  0  0  0  0  0  0
   -2.8967   -3.9485    0.4170 H   0  0  0  0  0  0  0  0  0  0  0  0
   -3.9928   -1.8268    0.0913 H   0  0  0  0  0  0  0  0  0  0  0  0
   -2.3408   -0.4379    1.8154 H   0  0  0  0  0  0  0  0  0  0  0  0
   -0.3632   -2.3609   -0.9594 H   0  0  0  0  0  0  0  0  0  0  0  0
    3.8367   -2.0993    0.7352 H   0  0  0  0  0  0  0  0  0  0  0  0
    3.8999   -3.1785   -0.7151 H   0  0  0  0  0  0  0  0  0  0  0  0
    4.3030   -1.4206   -0.8751 H   0  0  0  0  0  0  0  0  0  0  0  0
   -1.0755   -0.2797   -1.5865 H   0  0  0  0  0  0  0  0  0  0  0  0
   -0.4299    1.0480    1.7909 H   0  0  0  0  0  0  0  0  0  0  0  0
    0.1805   -0.5336    2.3209 H   0  0  0  0  0  0  0  0  0  0  0  0
    3.9714    0.4191    1.1995 H   0  0  0  0  0  0  0  0  0  0  0  0
    6.2989    0.9093    0.5675 H   0  0  0  0  0  0  0  0  0  0  0  0
    6.8072    2.7562   -1.0054 H   0  0  0  0  0  0  0  0  0  0  0  0
    4.9662    4.1152   -1.9575 H   0  0  0  0  0  0  0  0  0  0  0  0
    2.6273    3.6361   -1.3563 H   0  0  0  0  0  0  0  0  0  0  0  0
   -3.6964    1.6396   -2.0892 H   0  0  0  0  0  0  0  0  0  0  0  0
   -4.4648    3.4589   -3.5580 H   0  0  0  0  0  0  0  0  0  0  0  0
   -4.7146    5.7610   -2.6744 H   0  0  0  0  0  0  0  0  0  0  0  0
   -4.1933    6.2420   -0.2995 H   0  0  0  0  0  0  0  0  0  0  0  0
   -3.4255    4.4433    1.1947 H   0  0  0  0  0  0  0  0  0  0  0  0
  1  2  1  0
  2  3  2  0
  2  4  1  0
  4  5  1  0
  5  6  1  0
  6  7  2  0
  7  8  1  0
  8  9  1  0
  9 10  1  0
 10 11  1  0
 11 12  1  0
 12 13  2  0
 12 14  1  0
  9 15  1  6
  9 16  1  0
 16 17  1  0
 17 18  1  0
 18 19  2  0
 18 20  1  0
 20 21  2  0
 21 22  1  0
 22 23  2  0
 23 24  1  0
 24 25  2  0
  8 26  1  0
 26 27  1  0
 27 28  2  0
 27 29  1  0
 29 30  2  0
 30 31  1  0
 31 32  2  0
 32 33  1  0
 33 34  2  0
 10  5  1  0
 25 20  1  0
 34 29  1  0
  1 35  1  0
  1 36  1  0
  1 37  1  0
  5 38  1  1
  6 39  1  0
  7 40  1  0
  8 41  1  1
 10 42  1  6
 14 43  1  0
 14 44  1  0
 14 45  1  0
 15 46  1  0
 16 47  1  0
 16 48  1  0
 21 49  1  0
 22 50  1  0
 23 51  1  0
 24 52  1  0
 25 53  1  0
 30 54  1  0
 31 55  1  0
 32 56  1  0
 33 57  1  0
 34 58  1  0
M  END
$$$$
