
     RDKit          3D

 40 41  0  0  0  0  0  0  0  0999 V2000
   -4.7942   -0.9191    2.1083 C   0  0  0  0  0  0  0  0  0  0  0  0
   -4.4482    0.0623    1.0413 C   0  0  0  0  0  0  0  0  0  0  0  0
   -4.9174    1.2316    1.0924 O   0  0  0  0  0  0  0  0  0  0  0  0
   -3.6481   -0.3439   -0.0328 O   0  0  0  0  0  0  0  0  0  0  0  0
   -3.2258    0.5307   -1.0804 C   0  0  2  0  0  0  0  0  0  0  0  0
   -2.8008   -0.3093   -2.2603 C   0  0  0  0  0  0  0  0  0  0  0  0
   -1.5177   -0.5420   -2.5826 C   0  0  0  0  0  0  0  0  0  0  0  0
   -0.3578    0.1657   -1.9264 C   0  0  2  0  0  0  0  0  0  0  0  0
   -0.7284    0.7537   -0.5219 C   0  0  1  0  0  0  0  0  0  0  0  0
   -2.1053    1.4781   -0.5894 C   0  0  1  0  0  0  0  0  0  0  0  0
   -2.0450    2.5831   -1.4599 O   0  0  0  0  0  0  0  0  0  0  0  0
   -0.8050   -0.2797    0.4391 O   0  0  0  0  0  0  0  0  0  0  0  0
    0.3604    1.7370   -0.0179 C   0  0  0  0  0  0  0  0  0  0  0  0
    1.6562    1.1379   -0.0588 O   0  0  0  0  0  0  0  0  0  0  0  0
    2.1640    0.3015    0.9431 C   0  0  0  0  0  0  0  0  0  0  0  0
    1.5354    0.1554    2.0278 O   0  0  0  0  0  0  0  0  0  0  0  0
    3.4471   -0.4018    0.7281 C   0  0  0  0  0  0  0  0  0  0  0  0
    4.0048   -1.2080    1.7386 C   0  0  0  0  0  0  0  0  0  0  0  0
    5.2172   -1.8716    1.5250 C   0  0  0  0  0  0  0  0  0  0  0  0
    5.8828   -1.7398    0.3042 C   0  0  0  0  0  0  0  0  0  0  0  0
    5.3375   -0.9446   -0.7061 C   0  0  0  0  0  0  0  0  0  0  0  0
    4.1260   -0.2781   -0.4980 C   0  0  0  0  0  0  0  0  0  0  0  0
    0.2445    1.3929   -3.0862 Cl  0  0  0  0  0  0  0  0  0  0  0  0
   -4.9075   -0.4005    3.0837 H   0  0  0  0  0  0  0  0  0  0  0  0
   -5.7468   -1.4259    1.8491 H   0  0  0  0  0  0  0  0  0  0  0  0
   -3.9892   -1.6782    2.1980 H   0  0  0  0  0  0  0  0  0  0  0  0
   -4.0971    1.1403   -1.4088 H   0  0  0  0  0  0  0  0  0  0  0  0
   -3.5750   -0.8327   -2.8135 H   0  0  0  0  0  0  0  0  0  0  0  0
   -1.3056   -1.1957   -3.4240 H   0  0  0  0  0  0  0  0  0  0  0  0
    0.4616   -0.5742   -1.7951 H   0  0  0  0  0  0  0  0  0  0  0  0
   -2.3720    1.8240    0.4383 H   0  0  0  0  0  0  0  0  0  0  0  0
   -1.9050    3.3941   -0.9047 H   0  0  0  0  0  0  0  0  0  0  0  0
   -1.2059   -1.0890    0.0297 H   0  0  0  0  0  0  0  0  0  0  0  0
    0.3900    2.6486   -0.6490 H   0  0  0  0  0  0  0  0  0  0  0  0
    0.1273    2.0794    1.0147 H   0  0  0  0  0  0  0  0  0  0  0  0
    3.5064   -1.3248    2.6928 H   0  0  0  0  0  0  0  0  0  0  0  0
    5.6406   -2.4891    2.3070 H   0  0  0  0  0  0  0  0  0  0  0  0
    6.8209   -2.2544    0.1409 H   0  0  0  0  0  0  0  0  0  0  0  0
    5.8535   -0.8445   -1.6523 H   0  0  0  0  0  0  0  0  0  0  0  0
    3.7216    0.3308   -1.2971 H   0  0  0  0  0  0  0  0  0  0  0  0
  1  2  1  0
  2  3  2  0
  2  4  1  0
  4  5  1  0
  5  6  1  0
  6  7  2  0
  7  8  1  0
  8  9  1  0
  9 10  1  0
 10 11  1  0
  9 12  1  1
  9 13  1  0
 13 14  1  0
 14 15  1  0
 15 16  2  0
 15 17  1  0
 17 18  2  0
 18 19  1  0
 19 20  2  0
 20 21  1  0
 21 22  2  0
  8 23  1  0
 10  5  1  0
 22 17  1  0
  1 24  1  0
  1 25  1  0
  1 26  1  0
  5 27  1  6
  6 28  1  0
  7 29  1  0
  8 30  1  1
 10 31  1  1
 11 32  1  0
 12 33  1  0
 13 34  1  0
 13 35  1  0
 18 36  1  0
 19 37  1  0
 20 38  1  0
 21 39  1  0
 22 40  1  0
M  END
$$$$
