
     RDKit          3D

 53 55  0  0  0  0  0  0  0  0999 V2000
    2.0066    5.6650    0.8747 C   0  0  0  0  0  0  0  0  0  0  0  0
    1.1036    4.7782    0.0794 C   0  0  0  0  0  0  0  0  0  0  0  0
    1.2242    4.7338   -1.1770 O   0  0  0  0  0  0  0  0  0  0  0  0
    0.1472    3.9904    0.7374 O   0  0  0  0  0  0  0  0  0  0  0  0
   -0.7702    3.1278    0.0504 C   0  0  2  0  0  0  0  0  0  0  0  0
   -1.9355    2.8295    0.9666 C   0  0  0  0  0  0  0  0  0  0  0  0
   -2.6176    1.6804    0.8996 C   0  0  0  0  0  0  0  0  0  0  0  0
   -2.1833    0.5839   -0.0309 C   0  0  1  0  0  0  0  0  0  0  0  0
   -0.6322    0.4883   -0.0356 C   0  0  1  0  0  0  0  0  0  0  0  0
   -0.0267    1.8616   -0.5027 C   0  0  1  0  0  0  0  0  0  0  0  0
   -0.0356    1.9329   -1.9152 O   0  0  0  0  0  0  0  0  0  0  0  0
   -0.1729    0.1574    1.2596 O   0  0  0  0  0  0  0  0  0  0  0  0
   -0.1729   -0.6551   -0.9793 C   0  0  0  0  0  0  0  0  0  0  0  0
    1.2422   -0.6269   -1.1732 O   0  0  0  0  0  0  0  0  0  0  0  0
    2.1665   -1.1605   -0.2625 C   0  0  0  0  0  0  0  0  0  0  0  0
    1.7713   -1.8816    0.6966 O   0  0  0  0  0  0  0  0  0  0  0  0
    3.6084   -0.8783   -0.4332 C   0  0  0  0  0  0  0  0  0  0  0  0
    4.5602   -1.4286    0.4485 C   0  0  0  0  0  0  0  0  0  0  0  0
    5.9209   -1.1448    0.2882 C   0  0  0  0  0  0  0  0  0  0  0  0
    6.3448   -0.3110   -0.7497 C   0  0  0  0  0  0  0  0  0  0  0  0
    5.4087    0.2413   -1.6297 C   0  0  0  0  0  0  0  0  0  0  0  0
    4.0472   -0.0392   -1.4746 C   0  0  0  0  0  0  0  0  0  0  0  0
   -2.7714   -0.6457    0.4044 O   0  0  0  0  0  0  0  0  0  0  0  0
   -3.2597   -1.6307   -0.4657 C   0  0  0  0  0  0  0  0  0  0  0  0
   -3.2856   -1.4233   -1.7109 O   0  0  0  0  0  0  0  0  0  0  0  0
   -3.7389   -2.9190    0.0792 C   0  0  0  0  0  0  0  0  0  0  0  0
   -3.6979   -3.1650    1.4644 C   0  0  0  0  0  0  0  0  0  0  0  0
   -4.1393   -4.3888    1.9785 C   0  0  0  0  0  0  0  0  0  0  0  0
   -4.6242   -5.3770    1.1179 C   0  0  0  0  0  0  0  0  0  0  0  0
   -4.6715   -5.1427   -0.2584 C   0  0  0  0  0  0  0  0  0  0  0  0
   -4.2317   -3.9213   -0.7782 C   0  0  0  0  0  0  0  0  0  0  0  0
    1.6193    5.7764    1.9091 H   0  0  0  0  0  0  0  0  0  0  0  0
    3.0242    5.2217    0.9136 H   0  0  0  0  0  0  0  0  0  0  0  0
    2.0607    6.6700    0.4009 H   0  0  0  0  0  0  0  0  0  0  0  0
   -1.2144    3.6983   -0.8031 H   0  0  0  0  0  0  0  0  0  0  0  0
   -2.2802    3.6026    1.6487 H   0  0  0  0  0  0  0  0  0  0  0  0
   -3.4714    1.5268    1.5566 H   0  0  0  0  0  0  0  0  0  0  0  0
   -2.5474    0.8555   -1.0475 H   0  0  0  0  0  0  0  0  0  0  0  0
    1.0315    1.8835   -0.1299 H   0  0  0  0  0  0  0  0  0  0  0  0
    0.9024    2.0967   -2.2140 H   0  0  0  0  0  0  0  0  0  0  0  0
   -0.2345    0.9570    1.8452 H   0  0  0  0  0  0  0  0  0  0  0  0
   -0.4771   -1.6473   -0.5792 H   0  0  0  0  0  0  0  0  0  0  0  0
   -0.6587   -0.5443   -1.9729 H   0  0  0  0  0  0  0  0  0  0  0  0
    4.2536   -2.0751    1.2625 H   0  0  0  0  0  0  0  0  0  0  0  0
    6.6474   -1.5709    0.9705 H   0  0  0  0  0  0  0  0  0  0  0  0
    7.3980   -0.0914   -0.8712 H   0  0  0  0  0  0  0  0  0  0  0  0
    5.7376    0.8890   -2.4320 H   0  0  0  0  0  0  0  0  0  0  0  0
    3.3398    0.4038   -2.1660 H   0  0  0  0  0  0  0  0  0  0  0  0
   -3.3236   -2.4155    2.1504 H   0  0  0  0  0  0  0  0  0  0  0  0
   -4.1031   -4.5718    3.0452 H   0  0  0  0  0  0  0  0  0  0  0  0
   -4.9641   -6.3239    1.5180 H   0  0  0  0  0  0  0  0  0  0  0  0
   -5.0484   -5.9090   -0.9244 H   0  0  0  0  0  0  0  0  0  0  0  0
   -4.2764   -3.7633   -1.8490 H   0  0  0  0  0  0  0  0  0  0  0  0
  1  2  1  0
  2  3  2  0
  2  4  1  0
  4  5  1  0
  5  6  1  0
  6  7  2  0
  7  8  1  0
  8  9  1  0
  9 10  1  0
 10 11  1  0
  9 12  1  1
  9 13  1  0
 13 14  1  0
 14 15  1  0
 15 16  2  0
 15 17  1  0
 17 18  2  0
 18 19  1  0
 19 20  2  0
 20 21  1  0
 21 22  2  0
  8 23  1  0
 23 24  1  0
 24 25  2  0
 24 26  1  0
 26 27  2  0
 27 28  1  0
 28 29  2  0
 29 30  1  0
 30 31  2  0
 10  5  1  0
 22 17  1  0
 31 26  1  0
  1 32  1  0
  1 33  1  0
  1 34  1  0
  5 35  1  6
  6 36  1  0
  7 37  1  0
  8 38  1  6
 10 39  1  1
 11 40  1  0
 12 41  1  0
 13 42  1  0
 13 43  1  0
 18 44  1  0
 19 45  1  0
 20 46  1  0
 21 47  1  0
 22 48  1  0
 27 49  1  0
 28 50  1  0
 29 51  1  0
 30 52  1  0
 31 53  1  0
M  END
$$$$
