
     RDKit          3D

 43 44  0  0  0  0  0  0  0  0999 V2000
   -4.2713    0.7766   -1.5994 O   0  0  0  0  0  0  0  0  0  0  0  0
   -2.8689    0.7208   -1.6210 C   0  0  1  0  0  0  0  0  0  0  0  0
   -2.3547    1.7756   -2.5635 C   0  0  0  0  0  0  0  0  0  0  0  0
   -1.1229    2.2681   -2.4249 C   0  0  0  0  0  0  0  0  0  0  0  0
   -0.2904    1.8921   -1.2706 C   0  0  0  0  0  0  0  0  0  0  0  0
   -0.8083    1.2155   -0.2298 C   0  0  0  0  0  0  0  0  0  0  0  0
   -2.3009    0.9179   -0.1928 C   0  0  2  0  0  0  0  0  0  0  0  0
   -2.5388   -0.2616    0.5790 O   0  0  0  0  0  0  0  0  0  0  0  0
   -3.7224   -0.5102    1.2822 C   0  0  0  0  0  0  0  0  0  0  0  0
   -4.6376    0.3553    1.3378 O   0  0  0  0  0  0  0  0  0  0  0  0
   -3.8736   -1.7922    2.0269 C   0  0  0  0  0  0  0  0  0  0  0  0
    0.0661    0.9290    0.9708 C   0  0  0  0  0  0  0  0  0  0  0  0
    0.4962    2.1655    1.5354 O   0  0  0  0  0  0  0  0  0  0  0  0
    1.2533    2.2441    2.7084 C   0  0  0  0  0  0  0  0  0  0  0  0
    1.5517    1.2032    3.3550 O   0  0  0  0  0  0  0  0  0  0  0  0
    1.6654    3.5794    3.2267 C   0  0  0  0  0  0  0  0  0  0  0  0
    1.2080    0.1670    0.5764 O   0  0  0  0  0  0  0  0  0  0  0  0
    1.1429   -1.1754    0.1824 C   0  0  0  0  0  0  0  0  0  0  0  0
    0.0393   -1.7875    0.1987 O   0  0  0  0  0  0  0  0  0  0  0  0
    2.3723   -1.8734   -0.2514 C   0  0  0  0  0  0  0  0  0  0  0  0
    3.6052   -1.1956   -0.2663 C   0  0  0  0  0  0  0  0  0  0  0  0
    4.7689   -1.8530   -0.6779 C   0  0  0  0  0  0  0  0  0  0  0  0
    4.7148   -3.1901   -1.0782 C   0  0  0  0  0  0  0  0  0  0  0  0
    3.4962   -3.8727   -1.0684 C   0  0  0  0  0  0  0  0  0  0  0  0
    2.3293   -3.2204   -0.6579 C   0  0  0  0  0  0  0  0  0  0  0  0
   -4.5970   -0.1487   -1.4472 H   0  0  0  0  0  0  0  0  0  0  0  0
   -2.5235   -0.2654   -2.0144 H   0  0  0  0  0  0  0  0  0  0  0  0
   -2.9541    2.0716   -3.4159 H   0  0  0  0  0  0  0  0  0  0  0  0
   -0.7328    2.9599   -3.1602 H   0  0  0  0  0  0  0  0  0  0  0  0
    0.7506    2.1932   -1.2658 H   0  0  0  0  0  0  0  0  0  0  0  0
   -2.7928    1.7944    0.2860 H   0  0  0  0  0  0  0  0  0  0  0  0
   -3.2391   -2.5761    1.5625 H   0  0  0  0  0  0  0  0  0  0  0  0
   -4.9323   -2.1264    2.0018 H   0  0  0  0  0  0  0  0  0  0  0  0
   -3.5587   -1.6462    3.0811 H   0  0  0  0  0  0  0  0  0  0  0  0
   -0.4980    0.3708    1.7495 H   0  0  0  0  0  0  0  0  0  0  0  0
    0.8951    3.9556    3.9314 H   0  0  0  0  0  0  0  0  0  0  0  0
    1.7702    4.2953    2.3846 H   0  0  0  0  0  0  0  0  0  0  0  0
    2.6395    3.5019    3.7544 H   0  0  0  0  0  0  0  0  0  0  0  0
    3.6719   -0.1590    0.0394 H   0  0  0  0  0  0  0  0  0  0  0  0
    5.7135   -1.3245   -0.6868 H   0  0  0  0  0  0  0  0  0  0  0  0
    5.6167   -3.6966   -1.3969 H   0  0  0  0  0  0  0  0  0  0  0  0
    3.4550   -4.9084   -1.3802 H   0  0  0  0  0  0  0  0  0  0  0  0
    1.3960   -3.7695   -0.6592 H   0  0  0  0  0  0  0  0  0  0  0  0
  1  2  1  0
  2  3  1  0
  3  4  2  0
  4  5  1  0
  5  6  2  0
  6  7  1  0
  7  8  1  0
  8  9  1  0
  9 10  2  0
  9 11  1  0
  6 12  1  0
 12 13  1  0
 13 14  1  0
 14 15  2  0
 14 16  1  0
 12 17  1  0
 17 18  1  0
 18 19  2  0
 18 20  1  0
 20 21  2  0
 21 22  1  0
 22 23  2  0
 23 24  1  0
 24 25  2  0
  7  2  1  0
 25 20  1  0
  1 26  1  0
  2 27  1  6
  3 28  1  0
  4 29  1  0
  5 30  1  0
  7 31  1  1
 11 32  1  0
 11 33  1  0
 11 34  1  0
 12 35  1  0
 16 36  1  0
 16 37  1  0
 16 38  1  0
 21 39  1  0
 22 40  1  0
 23 41  1  0
 24 42  1  0
 25 43  1  0
M  END
$$$$
