
     RDKit          3D

 44 47  0  0  0  0  0  0  0  0999 V2000
   -0.6424    3.0522    2.6877 C   0  0  0  0  0  0  0  0  0  0  0  0
   -0.9615    1.7077    2.1295 C   0  0  0  0  0  0  0  0  0  0  0  0
   -1.0220    0.7105    2.8991 O   0  0  0  0  0  0  0  0  0  0  0  0
   -1.1324    1.5603    0.7488 O   0  0  0  0  0  0  0  0  0  0  0  0
   -1.4461    0.3153    0.1188 C   0  0  1  0  0  0  0  0  0  0  0  0
   -2.9320   -0.0606    0.3355 C   0  0  2  0  0  0  0  0  0  0  0  0
   -3.1564   -1.4143   -0.0610 O   0  0  0  0  0  0  0  0  0  0  0  0
   -2.7382   -2.5208    0.6868 C   0  0  0  0  0  0  0  0  0  0  0  0
   -2.2143   -2.3724    1.8243 O   0  0  0  0  0  0  0  0  0  0  0  0
   -2.9673   -3.8937    0.1539 C   0  0  0  0  0  0  0  0  0  0  0  0
   -3.9158    0.8300   -0.4432 C   0  0  1  0  0  0  0  0  0  0  0  0
   -3.4352    2.1357   -0.6707 O   0  0  0  0  0  0  0  0  0  0  0  0
   -3.5201    1.2872   -1.7985 C   0  0  1  0  0  0  0  0  0  0  0  0
   -2.1476    0.8515   -2.3407 C   0  0  2  0  0  0  0  0  0  0  0  0
   -1.1076    0.3842   -1.3830 C   0  0  2  0  0  0  0  0  0  0  0  0
    0.0613   -0.4359   -1.9288 C   0  0  0  0  0  0  0  0  0  0  0  0
    1.2372   -0.1171   -1.1932 O   0  0  0  0  0  0  0  0  0  0  0  0
    2.4706   -0.7338   -1.4228 C   0  0  0  0  0  0  0  0  0  0  0  0
    2.5869   -1.5941   -2.3389 O   0  0  0  0  0  0  0  0  0  0  0  0
    3.6353   -0.3744   -0.5851 C   0  0  0  0  0  0  0  0  0  0  0  0
    4.8943   -0.9616   -0.8124 C   0  0  0  0  0  0  0  0  0  0  0  0
    5.9895   -0.6170   -0.0140 C   0  0  0  0  0  0  0  0  0  0  0  0
    5.8405    0.3137    1.0169 C   0  0  0  0  0  0  0  0  0  0  0  0
    4.5957    0.9020    1.2518 C   0  0  0  0  0  0  0  0  0  0  0  0
    3.4971    0.5616    0.4566 C   0  0  0  0  0  0  0  0  0  0  0  0
   -1.1117    1.7006   -1.8949 O   0  0  0  0  0  0  0  0  0  0  0  0
   -1.0427    3.8433    2.0196 H   0  0  0  0  0  0  0  0  0  0  0  0
   -1.0994    3.1670    3.6932 H   0  0  0  0  0  0  0  0  0  0  0  0
    0.4585    3.1662    2.7691 H   0  0  0  0  0  0  0  0  0  0  0  0
   -0.8096   -0.4746    0.5746 H   0  0  0  0  0  0  0  0  0  0  0  0
   -3.1842    0.0453    1.4130 H   0  0  0  0  0  0  0  0  0  0  0  0
   -2.1299   -4.5614    0.4472 H   0  0  0  0  0  0  0  0  0  0  0  0
   -3.9178   -4.2951    0.5623 H   0  0  0  0  0  0  0  0  0  0  0  0
   -3.0299   -3.8636   -0.9541 H   0  0  0  0  0  0  0  0  0  0  0  0
   -5.0012    0.8110   -0.2113 H   0  0  0  0  0  0  0  0  0  0  0  0
   -4.3216    1.6082   -2.4955 H   0  0  0  0  0  0  0  0  0  0  0  0
   -2.0372    0.6031   -3.4170 H   0  0  0  0  0  0  0  0  0  0  0  0
   -0.1739   -1.5153   -1.8090 H   0  0  0  0  0  0  0  0  0  0  0  0
    0.2307   -0.2239   -3.0078 H   0  0  0  0  0  0  0  0  0  0  0  0
    5.0332   -1.6854   -1.6057 H   0  0  0  0  0  0  0  0  0  0  0  0
    6.9547   -1.0723   -0.1948 H   0  0  0  0  0  0  0  0  0  0  0  0
    6.6895    0.5787    1.6337 H   0  0  0  0  0  0  0  0  0  0  0  0
    4.4813    1.6225    2.0515 H   0  0  0  0  0  0  0  0  0  0  0  0
    2.5416    1.0298    0.6591 H   0  0  0  0  0  0  0  0  0  0  0  0
  1  2  1  0
  2  3  2  0
  2  4  1  0
  4  5  1  0
  5  6  1  0
  6  7  1  0
  7  8  1  0
  8  9  2  0
  8 10  1  0
  6 11  1  0
 11 12  1  0
 12 13  1  0
 13 14  1  0
 14 15  1  0
 15 16  1  6
 16 17  1  0
 17 18  1  0
 18 19  2  0
 18 20  1  0
 20 21  2  0
 21 22  1  0
 22 23  2  0
 23 24  1  0
 24 25  2  0
 15 26  1  0
 15  5  1  0
 25 20  1  0
 13 11  1  0
 26 14  1  0
  1 27  1  0
  1 28  1  0
  1 29  1  0
  5 30  1  1
  6 31  1  1
 10 32  1  0
 10 33  1  0
 10 34  1  0
 11 35  1  6
 13 36  1  6
 14 37  1  6
 16 38  1  0
 16 39  1  0
 21 40  1  0
 22 41  1  0
 23 42  1  0
 24 43  1  0
 25 44  1  0
M  END
$$$$
