
     RDKit          3D

 22 22  0  0  0  0  0  0  0  0999 V2000
    2.6890   -0.7723   -0.4076 O   0  0  0  0  0  0  0  0  0  0  0  0
    1.3233   -0.4632   -0.5460 C   0  0  0  0  0  0  0  0  0  0  0  0
    0.4509   -1.3485    0.3633 C   0  0  0  0  0  0  0  0  0  0  0  0
   -1.0623   -1.1319    0.1032 C   0  0  0  0  0  0  0  0  0  0  0  0
   -1.7740   -1.3349    1.2982 O   0  0  0  0  0  0  0  0  0  0  0  0
   -1.3812    0.2746   -0.4698 C   0  0  0  0  0  0  0  0  0  0  0  0
   -0.4179    1.3323    0.0947 C   0  0  0  0  0  0  0  0  0  0  0  0
    1.0535    1.0475   -0.3010 C   0  0  0  0  0  0  0  0  0  0  0  0
    1.9077    1.5393    0.7006 O   0  0  0  0  0  0  0  0  0  0  0  0
   -2.7103    0.6236   -0.1766 O   0  0  0  0  0  0  0  0  0  0  0  0
    2.9112   -0.7540    0.5598 H   0  0  0  0  0  0  0  0  0  0  0  0
    1.0454   -0.6965   -1.5980 H   0  0  0  0  0  0  0  0  0  0  0  0
    0.6866   -1.1116    1.4251 H   0  0  0  0  0  0  0  0  0  0  0  0
    0.7028   -2.4185    0.1959 H   0  0  0  0  0  0  0  0  0  0  0  0
   -1.4029   -1.8771   -0.6539 H   0  0  0  0  0  0  0  0  0  0  0  0
   -1.7620   -2.3118    1.4765 H   0  0  0  0  0  0  0  0  0  0  0  0
   -1.2514    0.2379   -1.5779 H   0  0  0  0  0  0  0  0  0  0  0  0
   -0.5170    1.3468    1.2033 H   0  0  0  0  0  0  0  0  0  0  0  0
   -0.7052    2.3398   -0.2777 H   0  0  0  0  0  0  0  0  0  0  0  0
    1.2731    1.5771   -1.2581 H   0  0  0  0  0  0  0  0  0  0  0  0
    1.8935    2.5297    0.6287 H   0  0  0  0  0  0  0  0  0  0  0  0
   -2.9525    1.3717   -0.7830 H   0  0  0  0  0  0  0  0  0  0  0  0
  1  2  1  0
  2  3  1  0
  3  4  1  0
  4  5  1  0
  4  6  1  0
  6  7  1  0
  7  8  1  0
  8  9  1  0
  6 10  1  0
  8  2  1  0
  1 11  1  0
  2 12  1  0
  3 13  1  0
  3 14  1  0
  4 15  1  0
  5 16  1  0
  6 17  1  0
  7 18  1  0
  7 19  1  0
  8 20  1  0
  9 21  1  0
 10 22  1  0
M  END
$$$$
