
     RDKit          3D

 37 39  0  0  0  0  0  0  0  0999 V2000
   -1.3267    2.1150   -1.7394 C   0  0  0  0  0  0  0  0  0  0  0  0
   -1.7738    0.8474   -1.0557 C   0  0  0  0  0  0  0  0  0  0  0  0
   -0.8878    0.1590   -0.2119 C   0  0  0  0  0  0  0  0  0  0  0  0
    0.4178    0.6478   -0.0372 O   0  0  0  0  0  0  0  0  0  0  0  0
    1.3019    0.1734    0.9822 C   0  0  1  0  0  0  0  0  0  0  0  0
    1.1463   -1.3409    1.1656 C   0  0  0  0  0  0  0  0  0  0  0  0
   -0.3062   -1.6546    1.3520 C   0  0  0  0  0  0  0  0  0  0  0  0
   -0.6627   -2.3874    2.3124 O   0  0  0  0  0  0  0  0  0  0  0  0
   -1.2959   -1.0160    0.4492 C   0  0  0  0  0  0  0  0  0  0  0  0
   -2.6037   -1.5179    0.2410 C   0  0  0  0  0  0  0  0  0  0  0  0
   -3.5219   -0.7815   -0.5397 C   0  0  0  0  0  0  0  0  0  0  0  0
   -3.1019    0.4035   -1.1872 C   0  0  0  0  0  0  0  0  0  0  0  0
   -3.9844    1.1539   -1.9729 O   0  0  0  0  0  0  0  0  0  0  0  0
   -4.9389   -1.2733   -0.7164 C   0  0  0  0  0  0  0  0  0  0  0  0
   -3.0077   -2.7517    0.7619 O   0  0  0  0  0  0  0  0  0  0  0  0
    2.7270    0.5257    0.6335 C   0  0  0  0  0  0  0  0  0  0  0  0
    3.2071    0.3504   -0.6772 C   0  0  0  0  0  0  0  0  0  0  0  0
    4.5360    0.6538   -0.9885 C   0  0  0  0  0  0  0  0  0  0  0  0
    5.3992    1.1214    0.0056 C   0  0  0  0  0  0  0  0  0  0  0  0
    4.9361    1.2827    1.3140 C   0  0  0  0  0  0  0  0  0  0  0  0
    3.6073    0.9824    1.6299 C   0  0  0  0  0  0  0  0  0  0  0  0
   -1.5185    2.9815   -1.0729 H   0  0  0  0  0  0  0  0  0  0  0  0
   -1.8670    2.2674   -2.6971 H   0  0  0  0  0  0  0  0  0  0  0  0
   -0.2442    2.0785   -1.9838 H   0  0  0  0  0  0  0  0  0  0  0  0
    1.0164    0.6719    1.9361 H   0  0  0  0  0  0  0  0  0  0  0  0
    1.7338   -1.6772    2.0483 H   0  0  0  0  0  0  0  0  0  0  0  0
    1.5135   -1.8806    0.2658 H   0  0  0  0  0  0  0  0  0  0  0  0
   -4.9519    0.9021   -2.1271 H   0  0  0  0  0  0  0  0  0  0  0  0
   -5.1529   -2.1965   -0.1404 H   0  0  0  0  0  0  0  0  0  0  0  0
   -5.6510   -0.4970   -0.3653 H   0  0  0  0  0  0  0  0  0  0  0  0
   -5.1278   -1.4920   -1.7885 H   0  0  0  0  0  0  0  0  0  0  0  0
   -2.3709   -3.4479    1.1217 H   0  0  0  0  0  0  0  0  0  0  0  0
    2.5536   -0.0225   -1.4563 H   0  0  0  0  0  0  0  0  0  0  0  0
    4.8975    0.5224   -2.0002 H   0  0  0  0  0  0  0  0  0  0  0  0
    6.4280    1.3542   -0.2368 H   0  0  0  0  0  0  0  0  0  0  0  0
    5.6079    1.6375    2.0848 H   0  0  0  0  0  0  0  0  0  0  0  0
    3.2663    1.1051    2.6503 H   0  0  0  0  0  0  0  0  0  0  0  0
  1  2  1  0
  2  3  2  0
  3  4  1  0
  4  5  1  0
  5  6  1  0
  6  7  1  0
  7  8  2  0
  7  9  1  0
  9 10  2  0
 10 11  1  0
 11 12  2  0
 12 13  1  0
 11 14  1  0
 10 15  1  0
  5 16  1  0
 16 17  2  0
 17 18  1  0
 18 19  2  0
 19 20  1  0
 20 21  2  0
 12  2  1  0
 21 16  1  0
  9  3  1  0
  1 22  1  0
  1 23  1  0
  1 24  1  0
  5 25  1  1
  6 26  1  0
  6 27  1  0
 13 28  1  0
 14 29  1  0
 14 30  1  0
 14 31  1  0
 15 32  1  0
 17 33  1  0
 18 34  1  0
 19 35  1  0
 20 36  1  0
 21 37  1  0
M  END
$$$$
