
     RDKit          3D

 43 44  0  0  0  0  0  0  0  0999 V2000
   -5.3571    0.6003    0.9043 C   0  0  0  0  0  0  0  0  0  0  0  0
   -4.4783   -0.4699    0.5682 O   0  0  0  0  0  0  0  0  0  0  0  0
   -3.1723   -0.2549    0.1039 C   0  0  0  0  0  0  0  0  0  0  0  0
   -2.2020    0.1595    0.9544 C   0  0  0  0  0  0  0  0  0  0  0  0
   -2.4714    0.2678    2.4355 C   0  0  0  0  0  0  0  0  0  0  0  0
   -0.8408    0.5035    0.4531 C   0  0  0  0  0  0  0  0  0  0  0  0
   -0.4501    0.1438   -0.7821 C   0  0  0  0  0  0  0  0  0  0  0  0
   -1.4159   -0.5036   -1.6925 C   0  0  0  0  0  0  0  0  0  0  0  0
   -1.0070   -0.9918   -2.7829 O   0  0  0  0  0  0  0  0  0  0  0  0
   -2.8996   -0.5206   -1.3742 C   0  0  0  0  0  0  0  0  0  0  0  0
   -3.4816   -1.9016   -1.7449 C   0  0  0  0  0  0  0  0  0  0  0  0
   -3.5862    0.5685   -2.2162 C   0  0  0  0  0  0  0  0  0  0  0  0
    0.9236    0.4224   -1.2691 C   0  0  0  0  0  0  0  0  0  0  0  0
    1.0778    0.8950   -2.4287 O   0  0  0  0  0  0  0  0  0  0  0  0
    2.1038    0.1117   -0.4326 C   0  0  0  0  0  0  0  0  0  0  0  0
    3.3507    0.4273   -0.8107 C   0  0  0  0  0  0  0  0  0  0  0  0
    4.5571    0.1205   -0.0038 C   0  0  0  0  0  0  0  0  0  0  0  0
    5.8051    0.0743   -0.6491 C   0  0  0  0  0  0  0  0  0  0  0  0
    6.9695   -0.2012    0.0741 C   0  0  0  0  0  0  0  0  0  0  0  0
    6.9029   -0.4231    1.4510 C   0  0  0  0  0  0  0  0  0  0  0  0
    5.6723   -0.3634    2.1083 C   0  0  0  0  0  0  0  0  0  0  0  0
    4.5039   -0.0890    1.3902 C   0  0  0  0  0  0  0  0  0  0  0  0
    0.0410    1.2291    1.2613 O   0  0  0  0  0  0  0  0  0  0  0  0
   -6.3372    0.1812    1.2105 H   0  0  0  0  0  0  0  0  0  0  0  0
   -4.9509    1.1999    1.7429 H   0  0  0  0  0  0  0  0  0  0  0  0
   -5.5108    1.2614    0.0271 H   0  0  0  0  0  0  0  0  0  0  0  0
   -2.6870    1.3237    2.7014 H   0  0  0  0  0  0  0  0  0  0  0  0
   -1.5879   -0.0800    3.0108 H   0  0  0  0  0  0  0  0  0  0  0  0
   -3.3191   -0.3739    2.7549 H   0  0  0  0  0  0  0  0  0  0  0  0
   -3.3311   -2.1218   -2.8239 H   0  0  0  0  0  0  0  0  0  0  0  0
   -2.9883   -2.7010   -1.1501 H   0  0  0  0  0  0  0  0  0  0  0  0
   -4.5746   -1.9412   -1.5475 H   0  0  0  0  0  0  0  0  0  0  0  0
   -4.6888    0.5324   -2.0888 H   0  0  0  0  0  0  0  0  0  0  0  0
   -3.2269    1.5767   -1.9151 H   0  0  0  0  0  0  0  0  0  0  0  0
   -3.3669    0.4269   -3.2969 H   0  0  0  0  0  0  0  0  0  0  0  0
    1.9340   -0.4187    0.4940 H   0  0  0  0  0  0  0  0  0  0  0  0
    3.5039    0.9001   -1.7741 H   0  0  0  0  0  0  0  0  0  0  0  0
    5.8777    0.2434   -1.7167 H   0  0  0  0  0  0  0  0  0  0  0  0
    7.9245   -0.2415   -0.4337 H   0  0  0  0  0  0  0  0  0  0  0  0
    7.8055   -0.6344    2.0097 H   0  0  0  0  0  0  0  0  0  0  0  0
    5.6241   -0.5225    3.1779 H   0  0  0  0  0  0  0  0  0  0  0  0
    3.5733   -0.0187    1.9358 H   0  0  0  0  0  0  0  0  0  0  0  0
   -0.2190    1.6036    2.1644 H   0  0  0  0  0  0  0  0  0  0  0  0
  1  2  1  0
  2  3  1  0
  3  4  2  0
  4  5  1  0
  4  6  1  0
  6  7  2  0
  7  8  1  0
  8  9  2  0
  8 10  1  0
 10 11  1  0
 10 12  1  0
  7 13  1  0
 13 14  2  0
 13 15  1  0
 15 16  2  0
 16 17  1  0
 17 18  2  0
 18 19  1  0
 19 20  2  0
 20 21  1  0
 21 22  2  0
  6 23  1  0
 10  3  1  0
 22 17  1  0
  1 24  1  0
  1 25  1  0
  1 26  1  0
  5 27  1  0
  5 28  1  0
  5 29  1  0
 11 30  1  0
 11 31  1  0
 11 32  1  0
 12 33  1  0
 12 34  1  0
 12 35  1  0
 15 36  1  0
 16 37  1  0
 18 38  1  0
 19 39  1  0
 20 40  1  0
 21 41  1  0
 22 42  1  0
 23 43  1  0
M  END
$$$$
