
     RDKit          3D

 59 63  0  0  0  0  0  0  0  0999 V2000
    0.8580    3.3086    1.3483 O   0  0  0  0  0  0  0  0  0  0  0  0
   -0.4919    3.2894    1.0026 C   0  0  0  0  0  0  0  0  0  0  0  0
   -1.4186    4.0112    1.7699 C   0  0  0  0  0  0  0  0  0  0  0  0
   -2.7739    4.0004    1.4332 C   0  0  0  0  0  0  0  0  0  0  0  0
   -3.2126    3.2745    0.3251 C   0  0  0  0  0  0  0  0  0  0  0  0
   -2.2977    2.5561   -0.4478 C   0  0  0  0  0  0  0  0  0  0  0  0
   -0.9306    2.5467   -0.1135 C   0  0  0  0  0  0  0  0  0  0  0  0
    0.0394    1.7366   -0.9454 C   0  0  0  0  0  0  0  0  0  0  0  0
    0.6102    0.5683   -0.1568 C   0  0  0  0  0  0  0  0  0  0  0  0
    1.9729    0.4892    0.2270 C   0  0  0  0  0  0  0  0  0  0  0  0
    2.8832    1.5203   -0.0307 O   0  0  0  0  0  0  0  0  0  0  0  0
    2.4550   -0.6611    0.8858 C   0  0  0  0  0  0  0  0  0  0  0  0
    3.9354   -0.7723    1.2090 C   0  0  0  0  0  0  0  0  0  0  0  0
    4.7402   -1.0995   -0.0332 C   0  0  0  0  0  0  0  0  0  0  0  0
    4.5977   -2.3876   -0.5856 C   0  0  0  0  0  0  0  0  0  0  0  0
    5.2851   -2.7515   -1.7442 C   0  0  0  0  0  0  0  0  0  0  0  0
    6.1283   -1.8376   -2.3715 C   0  0  0  0  0  0  0  0  0  0  0  0
    6.2907   -0.5590   -1.8383 C   0  0  0  0  0  0  0  0  0  0  0  0
    5.6125   -0.1751   -0.6738 C   0  0  0  0  0  0  0  0  0  0  0  0
    5.8452    1.1194   -0.2010 O   0  0  0  0  0  0  0  0  0  0  0  0
    1.5756   -1.7178    1.2066 C   0  0  0  0  0  0  0  0  0  0  0  0
    0.1929   -1.5922    0.9295 C   0  0  0  0  0  0  0  0  0  0  0  0
   -0.2589   -0.4840    0.1876 C   0  0  0  0  0  0  0  0  0  0  0  0
   -1.6024   -0.4171   -0.2062 O   0  0  0  0  0  0  0  0  0  0  0  0
   -2.4703   -1.5458   -0.1579 C   0  0  1  0  0  0  0  0  0  0  0  0
   -2.3033   -2.2477    1.1971 C   0  0  0  0  0  0  0  0  0  0  0  0
   -0.8490   -2.5237    1.4589 C   0  0  0  0  0  0  0  0  0  0  0  0
   -0.5574   -3.4648    2.2423 O   0  0  0  0  0  0  0  0  0  0  0  0
   -3.8812   -1.0961   -0.4929 C   0  0  0  0  0  0  0  0  0  0  0  0
   -4.1114   -0.5416   -1.7656 C   0  0  0  0  0  0  0  0  0  0  0  0
   -5.3807   -0.0807   -2.1250 C   0  0  0  0  0  0  0  0  0  0  0  0
   -6.4396   -0.1708   -1.2207 C   0  0  0  0  0  0  0  0  0  0  0  0
   -6.2313   -0.7240    0.0441 C   0  0  0  0  0  0  0  0  0  0  0  0
   -4.9629   -1.1851    0.4109 C   0  0  0  0  0  0  0  0  0  0  0  0
    2.1129   -2.8762    1.7772 O   0  0  0  0  0  0  0  0  0  0  0  0
    1.1951    3.8315    2.1481 H   0  0  0  0  0  0  0  0  0  0  0  0
   -1.0884    4.5801    2.6296 H   0  0  0  0  0  0  0  0  0  0  0  0
   -3.4844    4.5570    2.0306 H   0  0  0  0  0  0  0  0  0  0  0  0
   -4.2631    3.2677    0.0640 H   0  0  0  0  0  0  0  0  0  0  0  0
   -2.6590    2.0014   -1.3041 H   0  0  0  0  0  0  0  0  0  0  0  0
    0.8033    2.4108   -1.3689 H   0  0  0  0  0  0  0  0  0  0  0  0
   -0.4741    1.3248   -1.8420 H   0  0  0  0  0  0  0  0  0  0  0  0
    2.6496    2.4242   -0.4120 H   0  0  0  0  0  0  0  0  0  0  0  0
    4.1242   -1.5638    1.9648 H   0  0  0  0  0  0  0  0  0  0  0  0
    4.2670    0.1498    1.7177 H   0  0  0  0  0  0  0  0  0  0  0  0
    3.9478   -3.1161   -0.1189 H   0  0  0  0  0  0  0  0  0  0  0  0
    5.1617   -3.7445   -2.1569 H   0  0  0  0  0  0  0  0  0  0  0  0
    6.6599   -2.1207   -3.2708 H   0  0  0  0  0  0  0  0  0  0  0  0
    6.9531    0.1411   -2.3319 H   0  0  0  0  0  0  0  0  0  0  0  0
    5.4415    1.5085    0.6376 H   0  0  0  0  0  0  0  0  0  0  0  0
   -2.1517   -2.2631   -0.9479 H   0  0  0  0  0  0  0  0  0  0  0  0
   -2.8784   -3.1994    1.2033 H   0  0  0  0  0  0  0  0  0  0  0  0
   -2.6659   -1.5902    2.0159 H   0  0  0  0  0  0  0  0  0  0  0  0
   -3.3004   -0.4578   -2.4792 H   0  0  0  0  0  0  0  0  0  0  0  0
   -5.5424    0.3485   -3.1056 H   0  0  0  0  0  0  0  0  0  0  0  0
   -7.4223    0.1866   -1.5002 H   0  0  0  0  0  0  0  0  0  0  0  0
   -7.0548   -0.7957    0.7430 H   0  0  0  0  0  0  0  0  0  0  0  0
   -4.8468   -1.6089    1.3977 H   0  0  0  0  0  0  0  0  0  0  0  0
    1.6668   -3.7813    1.7411 H   0  0  0  0  0  0  0  0  0  0  0  0
  1  2  1  0
  2  3  2  0
  3  4  1  0
  4  5  2  0
  5  6  1  0
  6  7  2  0
  7  8  1  0
  8  9  1  0
  9 10  2  0
 10 11  1  0
 10 12  1  0
 12 13  1  0
 13 14  1  0
 14 15  2  0
 15 16  1  0
 16 17  2  0
 17 18  1  0
 18 19  2  0
 19 20  1  0
 12 21  2  0
 21 22  1  0
 22 23  2  0
 23 24  1  0
 24 25  1  0
 25 26  1  0
 26 27  1  0
 27 28  2  0
 25 29  1  0
 29 30  2  0
 30 31  1  0
 31 32  2  0
 32 33  1  0
 33 34  2  0
 21 35  1  0
  7  2  1  0
 23  9  1  0
 34 29  1  0
 19 14  1  0
 27 22  1  0
  1 36  1  0
  3 37  1  0
  4 38  1  0
  5 39  1  0
  6 40  1  0
  8 41  1  0
  8 42  1  0
 11 43  1  0
 13 44  1  0
 13 45  1  0
 15 46  1  0
 16 47  1  0
 17 48  1  0
 18 49  1  0
 20 50  1  0
 25 51  1  6
 26 52  1  0
 26 53  1  0
 30 54  1  0
 31 55  1  0
 32 56  1  0
 33 57  1  0
 34 58  1  0
 35 59  1  0
M  END
$$$$
