
     RDKit          3D

107109  0  0  0  0  0  0  0  0999 V2000
   13.4442   -0.3093    2.3948 C   0  0  0  0  0  0  0  0  0  0  0  0
   12.6771   -1.3857    1.6295 C   0  0  0  0  0  0  0  0  0  0  0  0
   11.2144   -1.4544    2.0923 C   0  0  0  0  0  0  0  0  0  0  0  0
   10.4280   -2.5908    1.4152 C   0  0  0  0  0  0  0  0  0  0  0  0
   10.1514   -2.3112   -0.0724 C   0  0  0  0  0  0  0  0  0  0  0  0
    9.2651   -3.3837   -0.7354 C   0  0  0  0  0  0  0  0  0  0  0  0
    7.8332   -3.5005   -0.1730 C   0  0  0  0  0  0  0  0  0  0  0  0
    7.0457   -2.1806   -0.0995 C   0  0  0  0  0  0  0  0  0  0  0  0
    6.8842   -1.5012   -1.4662 C   0  0  0  0  0  0  0  0  0  0  0  0
    6.0261   -0.2385   -1.3529 C   0  0  0  0  0  0  0  0  0  0  0  0
    5.9583    0.4801   -2.7071 C   0  0  0  0  0  0  0  0  0  0  0  0
    7.0081    1.4104   -2.8528 O   0  0  0  0  0  0  0  0  0  0  0  0
    5.7033    1.9477   -2.7939 C   0  0  0  0  0  0  0  0  0  0  0  0
    5.5074    2.8082   -1.5332 C   0  0  0  0  0  0  0  0  0  0  0  0
    4.1154    2.6165   -0.9103 C   0  0  0  0  0  0  0  0  0  0  0  0
    2.9944    3.3955   -1.6220 C   0  0  0  0  0  0  0  0  0  0  0  0
    3.1647    3.4952   -3.0191 O   0  0  0  0  0  0  0  0  0  0  0  0
    2.1722    2.6015   -2.5738 C   0  0  0  0  0  0  0  0  0  0  0  0
    0.7703    3.1296   -2.8863 C   0  0  0  0  0  0  0  0  0  0  0  0
   -0.3155    2.2106   -2.3089 C   0  0  0  0  0  0  0  0  0  0  0  0
   -0.3068    2.1140   -0.7722 C   0  0  0  0  0  0  0  0  0  0  0  0
   -0.7928    3.4078   -0.0949 C   0  0  0  0  0  0  0  0  0  0  0  0
   -0.8477    3.2938    1.4383 C   0  0  0  0  0  0  0  0  0  0  0  0
   -1.8634    2.2723    1.9890 C   0  0  0  0  0  0  0  0  0  0  0  0
   -3.3376    2.6008    1.6603 C   0  0  0  0  0  0  0  0  0  0  0  0
   -3.9204    1.8222    0.4615 C   0  0  0  0  0  0  0  0  0  0  0  0
   -4.0087    0.2914    0.6386 C   0  0  0  0  0  0  0  0  0  0  0  0
   -4.7965   -0.1844    1.8746 C   0  0  0  0  0  0  0  0  0  0  0  0
   -6.2508    0.3139    1.9460 C   0  0  0  0  0  0  0  0  0  0  0  0
   -7.1018   -0.1549    0.7558 C   0  0  0  0  0  0  0  0  0  0  0  0
   -8.5891    0.1509    0.9885 C   0  0  0  0  0  0  0  0  0  0  0  0
   -9.4491   -0.0502   -0.2727 C   0  0  0  0  0  0  0  0  0  0  0  0
   -9.4283   -1.4764   -0.8559 C   0  0  0  0  0  0  0  0  0  0  0  0
   -9.9887   -2.5555    0.0829 C   0  0  0  0  0  0  0  0  0  0  0  0
  -11.4465   -2.3481    0.3753 C   0  0  0  0  0  0  0  0  0  0  0  0
  -12.4456   -2.5806   -0.4666 C   0  0  0  0  0  0  0  0  0  0  0  0
  -13.7651   -2.2006    0.1578 C   0  0  0  0  0  0  0  0  0  0  0  0
  -13.3978   -1.7264    1.4516 O   0  0  0  0  0  0  0  0  0  0  0  0
  -12.0243   -1.8005    1.5806 C   0  0  0  0  0  0  0  0  0  0  0  0
  -11.3908   -1.4308    2.6036 O   0  0  0  0  0  0  0  0  0  0  0  0
  -14.6897   -3.4079    0.2753 C   0  0  0  0  0  0  0  0  0  0  0  0
   14.4939   -0.2770    2.0380 H   0  0  0  0  0  0  0  0  0  0  0  0
   12.9816    0.6858    2.2270 H   0  0  0  0  0  0  0  0  0  0  0  0
   13.4443   -0.5338    3.4815 H   0  0  0  0  0  0  0  0  0  0  0  0
   12.7216   -1.1419    0.5482 H   0  0  0  0  0  0  0  0  0  0  0  0
   13.1712   -2.3678    1.7950 H   0  0  0  0  0  0  0  0  0  0  0  0
   11.1953   -1.6303    3.1911 H   0  0  0  0  0  0  0  0  0  0  0  0
   10.7095   -0.4819    1.8983 H   0  0  0  0  0  0  0  0  0  0  0  0
    9.4652   -2.6937    1.9577 H   0  0  0  0  0  0  0  0  0  0  0  0
   10.9801   -3.5504    1.5223 H   0  0  0  0  0  0  0  0  0  0  0  0
    9.6972   -1.3062   -0.1971 H   0  0  0  0  0  0  0  0  0  0  0  0
   11.1155   -2.2982   -0.6227 H   0  0  0  0  0  0  0  0  0  0  0  0
    9.2081   -3.1705   -1.8249 H   0  0  0  0  0  0  0  0  0  0  0  0
    9.7627   -4.3731   -0.6359 H   0  0  0  0  0  0  0  0  0  0  0  0
    7.2662   -4.2161   -0.8079 H   0  0  0  0  0  0  0  0  0  0  0  0
    7.8743   -3.9486    0.8423 H   0  0  0  0  0  0  0  0  0  0  0  0
    7.5340   -1.4858    0.6159 H   0  0  0  0  0  0  0  0  0  0  0  0
    6.0367   -2.4062    0.3085 H   0  0  0  0  0  0  0  0  0  0  0  0
    7.8791   -1.2166   -1.8644 H   0  0  0  0  0  0  0  0  0  0  0  0
    6.4104   -2.2089   -2.1797 H   0  0  0  0  0  0  0  0  0  0  0  0
    6.4549    0.4077   -0.5633 H   0  0  0  0  0  0  0  0  0  0  0  0
    4.9978   -0.5273   -1.0537 H   0  0  0  0  0  0  0  0  0  0  0  0
    5.8012   -0.1098   -3.6354 H   0  0  0  0  0  0  0  0  0  0  0  0
    5.3942    2.3481   -3.7809 H   0  0  0  0  0  0  0  0  0  0  0  0
    5.6444    3.8746   -1.8107 H   0  0  0  0  0  0  0  0  0  0  0  0
    6.2878    2.5963   -0.7724 H   0  0  0  0  0  0  0  0  0  0  0  0
    3.8582    1.5394   -0.8410 H   0  0  0  0  0  0  0  0  0  0  0  0
    4.1567    2.9903    0.1347 H   0  0  0  0  0  0  0  0  0  0  0  0
    2.5884    4.3342   -1.1880 H   0  0  0  0  0  0  0  0  0  0  0  0
    2.4488    1.5532   -2.8201 H   0  0  0  0  0  0  0  0  0  0  0  0
    0.6526    3.1513   -3.9912 H   0  0  0  0  0  0  0  0  0  0  0  0
    0.6286    4.1714   -2.5263 H   0  0  0  0  0  0  0  0  0  0  0  0
   -0.1741    1.1886   -2.7274 H   0  0  0  0  0  0  0  0  0  0  0  0
   -1.3130    2.5648   -2.6508 H   0  0  0  0  0  0  0  0  0  0  0  0
    0.7087    1.8539   -0.4034 H   0  0  0  0  0  0  0  0  0  0  0  0
   -0.9788    1.2766   -0.4964 H   0  0  0  0  0  0  0  0  0  0  0  0
   -0.0847    4.2288   -0.3370 H   0  0  0  0  0  0  0  0  0  0  0  0
   -1.7828    3.7121   -0.4940 H   0  0  0  0  0  0  0  0  0  0  0  0
   -1.0875    4.2966    1.8566 H   0  0  0  0  0  0  0  0  0  0  0  0
    0.1640    3.0205    1.8115 H   0  0  0  0  0  0  0  0  0  0  0  0
   -1.5792    1.2473    1.6856 H   0  0  0  0  0  0  0  0  0  0  0  0
   -1.7595    2.2868    3.0968 H   0  0  0  0  0  0  0  0  0  0  0  0
   -3.4448    3.6896    1.4605 H   0  0  0  0  0  0  0  0  0  0  0  0
   -3.9639    2.4030    2.5560 H   0  0  0  0  0  0  0  0  0  0  0  0
   -4.9356    2.2182    0.2459 H   0  0  0  0  0  0  0  0  0  0  0  0
   -3.3222    2.0293   -0.4464 H   0  0  0  0  0  0  0  0  0  0  0  0
   -2.9883   -0.1422    0.6811 H   0  0  0  0  0  0  0  0  0  0  0  0
   -4.4708   -0.1406   -0.2743 H   0  0  0  0  0  0  0  0  0  0  0  0
   -4.8033   -1.2959    1.8750 H   0  0  0  0  0  0  0  0  0  0  0  0
   -4.2613    0.1248    2.7964 H   0  0  0  0  0  0  0  0  0  0  0  0
   -6.6962   -0.0822    2.8845 H   0  0  0  0  0  0  0  0  0  0  0  0
   -6.2748    1.4223    2.0156 H   0  0  0  0  0  0  0  0  0  0  0  0
   -6.7651    0.3660   -0.1652 H   0  0  0  0  0  0  0  0  0  0  0  0
   -6.9656   -1.2499    0.6183 H   0  0  0  0  0  0  0  0  0  0  0  0
   -8.6955    1.2125    1.3017 H   0  0  0  0  0  0  0  0  0  0  0  0
   -8.9735   -0.4726    1.8217 H   0  0  0  0  0  0  0  0  0  0  0  0
  -10.4975    0.2378   -0.0432 H   0  0  0  0  0  0  0  0  0  0  0  0
   -9.0926    0.6520   -1.0576 H   0  0  0  0  0  0  0  0  0  0  0  0
  -10.0227   -1.4769   -1.7958 H   0  0  0  0  0  0  0  0  0  0  0  0
   -8.3923   -1.7498   -1.1448 H   0  0  0  0  0  0  0  0  0  0  0  0
   -9.4068   -2.5969    1.0260 H   0  0  0  0  0  0  0  0  0  0  0  0
   -9.8668   -3.5450   -0.4068 H   0  0  0  0  0  0  0  0  0  0  0  0
  -12.3201   -2.9717   -1.4680 H   0  0  0  0  0  0  0  0  0  0  0  0
  -14.2483   -1.3885   -0.4261 H   0  0  0  0  0  0  0  0  0  0  0  0
  -14.9318   -3.8000   -0.7345 H   0  0  0  0  0  0  0  0  0  0  0  0
  -14.2064   -4.2105    0.8739 H   0  0  0  0  0  0  0  0  0  0  0  0
  -15.6339   -3.1093    0.7771 H   0  0  0  0  0  0  0  0  0  0  0  0
  1  2  1  0
  2  3  1  0
  3  4  1  0
  4  5  1  0
  5  6  1  0
  6  7  1  0
  7  8  1  0
  8  9  1  0
  9 10  1  0
 10 11  1  0
 11 12  1  0
 12 13  1  0
 13 14  1  0
 14 15  1  0
 15 16  1  0
 16 17  1  0
 17 18  1  0
 18 19  1  0
 19 20  1  0
 20 21  1  0
 21 22  1  0
 22 23  1  0
 23 24  1  0
 24 25  1  0
 25 26  1  0
 26 27  1  0
 27 28  1  0
 28 29  1  0
 29 30  1  0
 30 31  1  0
 31 32  1  0
 32 33  1  0
 33 34  1  0
 34 35  1  0
 35 36  2  0
 36 37  1  0
 37 38  1  0
 38 39  1  0
 39 40  2  0
 37 41  1  0
 13 11  1  0
 18 16  1  0
 39 35  1  0
  1 42  1  0
  1 43  1  0
  1 44  1  0
  2 45  1  0
  2 46  1  0
  3 47  1  0
  3 48  1  0
  4 49  1  0
  4 50  1  0
  5 51  1  0
  5 52  1  0
  6 53  1  0
  6 54  1  0
  7 55  1  0
  7 56  1  0
  8 57  1  0
  8 58  1  0
  9 59  1  0
  9 60  1  0
 10 61  1  0
 10 62  1  0
 11 63  1  0
 13 64  1  0
 14 65  1  0
 14 66  1  0
 15 67  1  0
 15 68  1  0
 16 69  1  0
 18 70  1  0
 19 71  1  0
 19 72  1  0
 20 73  1  0
 20 74  1  0
 21 75  1  0
 21 76  1  0
 22 77  1  0
 22 78  1  0
 23 79  1  0
 23 80  1  0
 24 81  1  0
 24 82  1  0
 25 83  1  0
 25 84  1  0
 26 85  1  0
 26 86  1  0
 27 87  1  0
 27 88  1  0
 28 89  1  0
 28 90  1  0
 29 91  1  0
 29 92  1  0
 30 93  1  0
 30 94  1  0
 31 95  1  0
 31 96  1  0
 32 97  1  0
 32 98  1  0
 33 99  1  0
 33100  1  0
 34101  1  0
 34102  1  0
 36103  1  0
 37104  1  0
 41105  1  0
 41106  1  0
 41107  1  0
M  END
$$$$
