
     RDKit          3D

104106  0  0  0  0  0  0  0  0999 V2000
  -14.6954    3.3695    2.6865 C   0  0  0  0  0  0  0  0  0  0  0  0
  -13.7414    3.9014    1.6204 C   0  0  0  0  0  0  0  0  0  0  0  0
  -13.2303    2.7713    0.7195 C   0  0  0  0  0  0  0  0  0  0  0  0
  -12.2555    3.3081   -0.3398 C   0  0  0  0  0  0  0  0  0  0  0  0
  -11.9028    2.2650   -1.4160 C   0  0  0  0  0  0  0  0  0  0  0  0
  -11.1669    1.0163   -0.8967 C   0  0  0  0  0  0  0  0  0  0  0  0
   -9.7346    1.3198   -0.4256 C   0  0  0  0  0  0  0  0  0  0  0  0
   -9.0180    0.0846    0.1495 C   0  0  0  0  0  0  0  0  0  0  0  0
   -8.8529   -1.0954   -0.8290 C   0  0  0  0  0  0  0  0  0  0  0  0
   -8.1242   -0.7576   -2.1424 C   0  0  0  0  0  0  0  0  0  0  0  0
   -6.6887   -0.2283   -1.9685 C   0  0  0  0  0  0  0  0  0  0  0  0
   -5.7179   -1.2597   -1.3554 C   0  0  0  0  0  0  0  0  0  0  0  0
   -5.3905   -0.9329    0.1122 C   0  0  0  0  0  0  0  0  0  0  0  0
   -6.1188   -1.7229    1.0245 O   0  0  0  0  0  0  0  0  0  0  0  0
   -4.7267   -1.9508    0.9778 C   0  0  0  0  0  0  0  0  0  0  0  0
   -4.4241   -3.3745    0.4817 C   0  0  0  0  0  0  0  0  0  0  0  0
   -3.1177   -3.4437   -0.3155 C   0  0  0  0  0  0  0  0  0  0  0  0
   -1.8994   -3.1454    0.5653 C   0  0  0  0  0  0  0  0  0  0  0  0
   -1.3887   -4.3072    1.1808 O   0  0  0  0  0  0  0  0  0  0  0  0
   -0.6256   -3.7634    0.1261 C   0  0  0  0  0  0  0  0  0  0  0  0
    0.6617   -3.1118    0.6352 C   0  0  0  0  0  0  0  0  0  0  0  0
    1.1234   -2.0270   -0.3455 C   0  0  0  0  0  0  0  0  0  0  0  0
    2.3987   -1.3074    0.1189 C   0  0  0  0  0  0  0  0  0  0  0  0
    3.6443   -2.2037    0.0410 C   0  0  0  0  0  0  0  0  0  0  0  0
    4.9231   -1.3952    0.2934 C   0  0  0  0  0  0  0  0  0  0  0  0
    6.1636   -2.2938    0.2218 C   0  0  0  0  0  0  0  0  0  0  0  0
    7.4501   -1.4765    0.3887 C   0  0  0  0  0  0  0  0  0  0  0  0
    8.6881   -2.3807    0.2951 C   0  0  0  0  0  0  0  0  0  0  0  0
   10.0024   -1.6117    0.5021 C   0  0  0  0  0  0  0  0  0  0  0  0
   10.3463   -0.7018   -0.6868 C   0  0  0  0  0  0  0  0  0  0  0  0
   11.7420   -0.0891   -0.5269 C   0  0  0  0  0  0  0  0  0  0  0  0
   12.0697    0.8410   -1.7043 C   0  0  0  0  0  0  0  0  0  0  0  0
   13.4908    1.4139   -1.6175 C   0  0  0  0  0  0  0  0  0  0  0  0
   13.6439    2.3648   -0.4655 C   0  0  0  0  0  0  0  0  0  0  0  0
   13.1830    3.6087   -0.4172 C   0  0  0  0  0  0  0  0  0  0  0  0
   13.4749    4.2283    0.9268 C   0  0  0  0  0  0  0  0  0  0  0  0
   14.1533    3.1922    1.6344 O   0  0  0  0  0  0  0  0  0  0  0  0
   14.2478    2.0833    0.8163 C   0  0  0  0  0  0  0  0  0  0  0  0
   14.7817    0.9960    1.1585 O   0  0  0  0  0  0  0  0  0  0  0  0
   14.3703    5.4550    0.7893 C   0  0  0  0  0  0  0  0  0  0  0  0
  -14.1752    2.6367    3.3389 H   0  0  0  0  0  0  0  0  0  0  0  0
  -15.5715    2.8799    2.2112 H   0  0  0  0  0  0  0  0  0  0  0  0
  -15.0573    4.2109    3.3136 H   0  0  0  0  0  0  0  0  0  0  0  0
  -12.8826    4.3996    2.1211 H   0  0  0  0  0  0  0  0  0  0  0  0
  -14.2774    4.6569    1.0055 H   0  0  0  0  0  0  0  0  0  0  0  0
  -14.0950    2.2847    0.2168 H   0  0  0  0  0  0  0  0  0  0  0  0
  -12.7143    2.0180    1.3518 H   0  0  0  0  0  0  0  0  0  0  0  0
  -11.3367    3.6906    0.1500 H   0  0  0  0  0  0  0  0  0  0  0  0
  -12.7284    4.1712   -0.8576 H   0  0  0  0  0  0  0  0  0  0  0  0
  -12.8417    1.9393   -1.9142 H   0  0  0  0  0  0  0  0  0  0  0  0
  -11.2796    2.7537   -2.1966 H   0  0  0  0  0  0  0  0  0  0  0  0
  -11.7457    0.5298   -0.0846 H   0  0  0  0  0  0  0  0  0  0  0  0
  -11.1211    0.2957   -1.7398 H   0  0  0  0  0  0  0  0  0  0  0  0
   -9.7666    2.0786    0.3827 H   0  0  0  0  0  0  0  0  0  0  0  0
   -9.1420    1.7536   -1.2582 H   0  0  0  0  0  0  0  0  0  0  0  0
   -8.0201    0.3953    0.5234 H   0  0  0  0  0  0  0  0  0  0  0  0
   -9.5850   -0.2757    1.0351 H   0  0  0  0  0  0  0  0  0  0  0  0
   -9.8526   -1.5103   -1.0758 H   0  0  0  0  0  0  0  0  0  0  0  0
   -8.3118   -1.9145   -0.3122 H   0  0  0  0  0  0  0  0  0  0  0  0
   -8.0921   -1.6734   -2.7717 H   0  0  0  0  0  0  0  0  0  0  0  0
   -8.7159   -0.0128   -2.7147 H   0  0  0  0  0  0  0  0  0  0  0  0
   -6.6925    0.7261   -1.3995 H   0  0  0  0  0  0  0  0  0  0  0  0
   -6.3160    0.0314   -2.9840 H   0  0  0  0  0  0  0  0  0  0  0  0
   -6.1223   -2.2839   -1.4836 H   0  0  0  0  0  0  0  0  0  0  0  0
   -4.7648   -1.2119   -1.9227 H   0  0  0  0  0  0  0  0  0  0  0  0
   -5.2937    0.1218    0.4463 H   0  0  0  0  0  0  0  0  0  0  0  0
   -4.2310   -1.5852    1.9019 H   0  0  0  0  0  0  0  0  0  0  0  0
   -4.3432   -4.0412    1.3674 H   0  0  0  0  0  0  0  0  0  0  0  0
   -5.2516   -3.7846   -0.1334 H   0  0  0  0  0  0  0  0  0  0  0  0
   -3.0389   -4.4587   -0.7660 H   0  0  0  0  0  0  0  0  0  0  0  0
   -3.1386   -2.7129   -1.1494 H   0  0  0  0  0  0  0  0  0  0  0  0
   -1.8570   -2.2516    1.2243 H   0  0  0  0  0  0  0  0  0  0  0  0
   -0.6137   -4.4270   -0.7647 H   0  0  0  0  0  0  0  0  0  0  0  0
    0.5151   -2.6676    1.6450 H   0  0  0  0  0  0  0  0  0  0  0  0
    1.4316   -3.9063    0.7157 H   0  0  0  0  0  0  0  0  0  0  0  0
    1.2872   -2.4694   -1.3531 H   0  0  0  0  0  0  0  0  0  0  0  0
    0.3154   -1.2687   -0.4410 H   0  0  0  0  0  0  0  0  0  0  0  0
    2.2658   -0.9349    1.1579 H   0  0  0  0  0  0  0  0  0  0  0  0
    2.5482   -0.4236   -0.5393 H   0  0  0  0  0  0  0  0  0  0  0  0
    3.7020   -2.6709   -0.9671 H   0  0  0  0  0  0  0  0  0  0  0  0
    3.5718   -3.0093    0.8026 H   0  0  0  0  0  0  0  0  0  0  0  0
    4.8700   -0.9208    1.2983 H   0  0  0  0  0  0  0  0  0  0  0  0
    5.0056   -0.5926   -0.4727 H   0  0  0  0  0  0  0  0  0  0  0  0
    6.1862   -2.8113   -0.7626 H   0  0  0  0  0  0  0  0  0  0  0  0
    6.1063   -3.0628    1.0236 H   0  0  0  0  0  0  0  0  0  0  0  0
    7.4381   -0.9666    1.3769 H   0  0  0  0  0  0  0  0  0  0  0  0
    7.4873   -0.7049   -0.4088 H   0  0  0  0  0  0  0  0  0  0  0  0
    8.7081   -2.8966   -0.6902 H   0  0  0  0  0  0  0  0  0  0  0  0
    8.6184   -3.1634    1.0823 H   0  0  0  0  0  0  0  0  0  0  0  0
   10.8171   -2.3580    0.6303 H   0  0  0  0  0  0  0  0  0  0  0  0
    9.9462   -1.0111    1.4363 H   0  0  0  0  0  0  0  0  0  0  0  0
   10.3129   -1.2931   -1.6283 H   0  0  0  0  0  0  0  0  0  0  0  0
    9.6015    0.1194   -0.7562 H   0  0  0  0  0  0  0  0  0  0  0  0
   11.7789    0.4866    0.4233 H   0  0  0  0  0  0  0  0  0  0  0  0
   12.4986   -0.9030   -0.4778 H   0  0  0  0  0  0  0  0  0  0  0  0
   11.3328    1.6738   -1.7455 H   0  0  0  0  0  0  0  0  0  0  0  0
   11.9859    0.2668   -2.6531 H   0  0  0  0  0  0  0  0  0  0  0  0
   14.2287    0.5876   -1.5265 H   0  0  0  0  0  0  0  0  0  0  0  0
   13.7173    1.9566   -2.5609 H   0  0  0  0  0  0  0  0  0  0  0  0
   12.6528    4.0971   -1.2252 H   0  0  0  0  0  0  0  0  0  0  0  0
   12.5278    4.4883    1.4454 H   0  0  0  0  0  0  0  0  0  0  0  0
   14.6101    5.8572    1.7969 H   0  0  0  0  0  0  0  0  0  0  0  0
   13.8496    6.2438    0.2048 H   0  0  0  0  0  0  0  0  0  0  0  0
   15.3192    5.1886    0.2753 H   0  0  0  0  0  0  0  0  0  0  0  0
  1  2  1  0
  2  3  1  0
  3  4  1  0
  4  5  1  0
  5  6  1  0
  6  7  1  0
  7  8  1  0
  8  9  1  0
  9 10  1  0
 10 11  1  0
 11 12  1  0
 12 13  1  0
 13 14  1  0
 14 15  1  0
 15 16  1  0
 16 17  1  0
 17 18  1  0
 18 19  1  0
 19 20  1  0
 20 21  1  0
 21 22  1  0
 22 23  1  0
 23 24  1  0
 24 25  1  0
 25 26  1  0
 26 27  1  0
 27 28  1  0
 28 29  1  0
 29 30  1  0
 30 31  1  0
 31 32  1  0
 32 33  1  0
 33 34  1  0
 34 35  2  0
 35 36  1  0
 36 37  1  0
 37 38  1  0
 38 39  2  0
 36 40  1  0
 15 13  1  0
 20 18  1  0
 38 34  1  0
  1 41  1  0
  1 42  1  0
  1 43  1  0
  2 44  1  0
  2 45  1  0
  3 46  1  0
  3 47  1  0
  4 48  1  0
  4 49  1  0
  5 50  1  0
  5 51  1  0
  6 52  1  0
  6 53  1  0
  7 54  1  0
  7 55  1  0
  8 56  1  0
  8 57  1  0
  9 58  1  0
  9 59  1  0
 10 60  1  0
 10 61  1  0
 11 62  1  0
 11 63  1  0
 12 64  1  0
 12 65  1  0
 13 66  1  0
 15 67  1  0
 16 68  1  0
 16 69  1  0
 17 70  1  0
 17 71  1  0
 18 72  1  0
 20 73  1  0
 21 74  1  0
 21 75  1  0
 22 76  1  0
 22 77  1  0
 23 78  1  0
 23 79  1  0
 24 80  1  0
 24 81  1  0
 25 82  1  0
 25 83  1  0
 26 84  1  0
 26 85  1  0
 27 86  1  0
 27 87  1  0
 28 88  1  0
 28 89  1  0
 29 90  1  0
 29 91  1  0
 30 92  1  0
 30 93  1  0
 31 94  1  0
 31 95  1  0
 32 96  1  0
 32 97  1  0
 33 98  1  0
 33 99  1  0
 35100  1  0
 36101  1  0
 40102  1  0
 40103  1  0
 40104  1  0
M  END
$$$$
