
     RDKit          3D

104106  0  0  0  0  0  0  0  0999 V2000
   11.7975   -4.3361   -0.1949 C   0  0  0  0  0  0  0  0  0  0  0  0
   10.6342   -4.0096    0.7435 C   0  0  0  0  0  0  0  0  0  0  0  0
   11.0555   -3.1490    1.9457 C   0  0  0  0  0  0  0  0  0  0  0  0
   11.5601   -1.7382    1.5858 C   0  0  0  0  0  0  0  0  0  0  0  0
   10.4708   -0.8173    0.9939 C   0  0  0  0  0  0  0  0  0  0  0  0
   10.6003   -0.6563   -0.5324 C   0  0  0  0  0  0  0  0  0  0  0  0
    9.5694    0.3323   -1.1027 C   0  0  0  0  0  0  0  0  0  0  0  0
    9.9786    1.7968   -0.8725 C   0  0  0  0  0  0  0  0  0  0  0  0
    9.0551    2.7930   -1.5939 C   0  0  0  0  0  0  0  0  0  0  0  0
    7.6270    2.8314   -1.0121 C   0  0  0  0  0  0  0  0  0  0  0  0
    6.6223    2.0601   -1.8866 C   0  0  0  0  0  0  0  0  0  0  0  0
    5.2306    1.9689   -1.2398 C   0  0  0  0  0  0  0  0  0  0  0  0
    5.1721    0.9011   -0.1336 C   0  0  0  0  0  0  0  0  0  0  0  0
    3.7646    0.7443    0.4566 C   0  0  0  0  0  0  0  0  0  0  0  0
    2.7998    0.0923   -0.5466 C   0  0  0  0  0  0  0  0  0  0  0  0
    1.4989    0.0790   -0.0074 O   0  0  0  0  0  0  0  0  0  0  0  0
    1.6685    0.8347   -1.1864 C   0  0  0  0  0  0  0  0  0  0  0  0
    1.4985    2.3532   -0.9696 C   0  0  0  0  0  0  0  0  0  0  0  0
    0.5329    2.7244    0.1635 C   0  0  0  0  0  0  0  0  0  0  0  0
   -0.8992    2.2733   -0.1448 C   0  0  0  0  0  0  0  0  0  0  0  0
   -1.2104    1.0361    0.4555 O   0  0  0  0  0  0  0  0  0  0  0  0
   -1.8100    2.1802    1.0222 C   0  0  0  0  0  0  0  0  0  0  0  0
   -3.3075    2.2609    0.7015 C   0  0  0  0  0  0  0  0  0  0  0  0
   -4.1717    1.8919    1.9169 C   0  0  0  0  0  0  0  0  0  0  0  0
   -4.0629    0.4066    2.3269 C   0  0  0  0  0  0  0  0  0  0  0  0
   -5.2274   -0.4665    1.8278 C   0  0  0  0  0  0  0  0  0  0  0  0
   -5.2521   -0.6120    0.2960 C   0  0  0  0  0  0  0  0  0  0  0  0
   -6.2318   -1.7066   -0.1793 C   0  0  0  0  0  0  0  0  0  0  0  0
   -7.5729   -1.1587   -0.6962 C   0  0  0  0  0  0  0  0  0  0  0  0
   -8.4372   -0.5432    0.4125 C   0  0  0  0  0  0  0  0  0  0  0  0
   -9.8420   -0.2138   -0.1072 C   0  0  0  0  0  0  0  0  0  0  0  0
  -10.7171    0.3749    1.0090 C   0  0  0  0  0  0  0  0  0  0  0  0
  -12.0952    0.8141    0.4968 C   0  0  0  0  0  0  0  0  0  0  0  0
  -12.9416   -0.3566    0.0851 C   0  0  0  0  0  0  0  0  0  0  0  0
  -13.0873   -0.8153   -1.1504 C   0  0  0  0  0  0  0  0  0  0  0  0
  -13.9537   -2.0498   -1.1577 C   0  0  0  0  0  0  0  0  0  0  0  0
  -14.2694   -2.2466    0.2189 O   0  0  0  0  0  0  0  0  0  0  0  0
  -13.6703   -1.2463    0.9592 C   0  0  0  0  0  0  0  0  0  0  0  0
  -13.7548   -1.1459    2.2110 O   0  0  0  0  0  0  0  0  0  0  0  0
  -13.1926   -3.2531   -1.7045 C   0  0  0  0  0  0  0  0  0  0  0  0
   12.6466   -4.7742    0.3736 H   0  0  0  0  0  0  0  0  0  0  0  0
   12.1408   -3.4258   -0.7283 H   0  0  0  0  0  0  0  0  0  0  0  0
   11.4644   -5.0759   -0.9531 H   0  0  0  0  0  0  0  0  0  0  0  0
    9.8155   -3.5192    0.1777 H   0  0  0  0  0  0  0  0  0  0  0  0
   10.2292   -4.9694    1.1326 H   0  0  0  0  0  0  0  0  0  0  0  0
   10.1906   -3.0583    2.6387 H   0  0  0  0  0  0  0  0  0  0  0  0
   11.8559   -3.6809    2.5056 H   0  0  0  0  0  0  0  0  0  0  0  0
   12.4514   -1.7973    0.9251 H   0  0  0  0  0  0  0  0  0  0  0  0
   11.9187   -1.2756    2.5308 H   0  0  0  0  0  0  0  0  0  0  0  0
   10.5693    0.1822    1.4696 H   0  0  0  0  0  0  0  0  0  0  0  0
    9.4556   -1.1968    1.2456 H   0  0  0  0  0  0  0  0  0  0  0  0
   10.4345   -1.6403   -1.0178 H   0  0  0  0  0  0  0  0  0  0  0  0
   11.6287   -0.3249   -0.7964 H   0  0  0  0  0  0  0  0  0  0  0  0
    9.4841    0.1523   -2.1976 H   0  0  0  0  0  0  0  0  0  0  0  0
    8.5761    0.1322   -0.6447 H   0  0  0  0  0  0  0  0  0  0  0  0
    9.9907    2.0295    0.2130 H   0  0  0  0  0  0  0  0  0  0  0  0
   11.0102    1.9499   -1.2581 H   0  0  0  0  0  0  0  0  0  0  0  0
    9.5039    3.8039   -1.4758 H   0  0  0  0  0  0  0  0  0  0  0  0
    9.0419    2.5785   -2.6860 H   0  0  0  0  0  0  0  0  0  0  0  0
    7.6263    2.4455    0.0287 H   0  0  0  0  0  0  0  0  0  0  0  0
    7.2915    3.8911   -0.9607 H   0  0  0  0  0  0  0  0  0  0  0  0
    6.5233    2.5957   -2.8567 H   0  0  0  0  0  0  0  0  0  0  0  0
    6.9948    1.0393   -2.1179 H   0  0  0  0  0  0  0  0  0  0  0  0
    4.9411    2.9605   -0.8283 H   0  0  0  0  0  0  0  0  0  0  0  0
    4.5006    1.7050   -2.0357 H   0  0  0  0  0  0  0  0  0  0  0  0
    5.5124   -0.0793   -0.5334 H   0  0  0  0  0  0  0  0  0  0  0  0
    5.8573    1.1835    0.6924 H   0  0  0  0  0  0  0  0  0  0  0  0
    3.8407    0.0616    1.3312 H   0  0  0  0  0  0  0  0  0  0  0  0
    3.4006    1.7140    0.8542 H   0  0  0  0  0  0  0  0  0  0  0  0
    3.0560   -0.9054   -0.9593 H   0  0  0  0  0  0  0  0  0  0  0  0
    1.1611    0.3489   -2.0463 H   0  0  0  0  0  0  0  0  0  0  0  0
    2.4758    2.8453   -0.8006 H   0  0  0  0  0  0  0  0  0  0  0  0
    1.1131    2.7881   -1.9168 H   0  0  0  0  0  0  0  0  0  0  0  0
    0.8996    2.3009    1.1261 H   0  0  0  0  0  0  0  0  0  0  0  0
    0.5256    3.8313    0.2698 H   0  0  0  0  0  0  0  0  0  0  0  0
   -1.3432    2.3888   -1.1571 H   0  0  0  0  0  0  0  0  0  0  0  0
   -1.4123    2.4212    2.0325 H   0  0  0  0  0  0  0  0  0  0  0  0
   -3.5651    1.6190   -0.1670 H   0  0  0  0  0  0  0  0  0  0  0  0
   -3.5391    3.3092    0.4156 H   0  0  0  0  0  0  0  0  0  0  0  0
   -3.8580    2.5281    2.7737 H   0  0  0  0  0  0  0  0  0  0  0  0
   -5.2306    2.1568    1.7031 H   0  0  0  0  0  0  0  0  0  0  0  0
   -4.0693    0.3569    3.4370 H   0  0  0  0  0  0  0  0  0  0  0  0
   -3.0972   -0.0363    2.0036 H   0  0  0  0  0  0  0  0  0  0  0  0
   -5.1059   -1.4735    2.2858 H   0  0  0  0  0  0  0  0  0  0  0  0
   -6.1881   -0.0489    2.1948 H   0  0  0  0  0  0  0  0  0  0  0  0
   -4.2299   -0.8895   -0.0457 H   0  0  0  0  0  0  0  0  0  0  0  0
   -5.5085    0.3627   -0.1725 H   0  0  0  0  0  0  0  0  0  0  0  0
   -6.4107   -2.4678    0.6116 H   0  0  0  0  0  0  0  0  0  0  0  0
   -5.7535   -2.2484   -1.0249 H   0  0  0  0  0  0  0  0  0  0  0  0
   -8.1254   -2.0054   -1.1592 H   0  0  0  0  0  0  0  0  0  0  0  0
   -7.3889   -0.4053   -1.4938 H   0  0  0  0  0  0  0  0  0  0  0  0
   -7.9613    0.3944    0.7707 H   0  0  0  0  0  0  0  0  0  0  0  0
   -8.5160   -1.2571    1.2623 H   0  0  0  0  0  0  0  0  0  0  0  0
   -9.7606    0.5203   -0.9398 H   0  0  0  0  0  0  0  0  0  0  0  0
  -10.3140   -1.1425   -0.4978 H   0  0  0  0  0  0  0  0  0  0  0  0
  -10.8394   -0.3688    1.8269 H   0  0  0  0  0  0  0  0  0  0  0  0
  -10.2081    1.2664    1.4362 H   0  0  0  0  0  0  0  0  0  0  0  0
  -12.6197    1.3608    1.3092 H   0  0  0  0  0  0  0  0  0  0  0  0
  -11.9770    1.5216   -0.3536 H   0  0  0  0  0  0  0  0  0  0  0  0
  -12.6328   -0.3692   -2.0257 H   0  0  0  0  0  0  0  0  0  0  0  0
  -14.8821   -1.8687   -1.7424 H   0  0  0  0  0  0  0  0  0  0  0  0
  -12.9128   -3.0789   -2.7654 H   0  0  0  0  0  0  0  0  0  0  0  0
  -13.8366   -4.1554   -1.6527 H   0  0  0  0  0  0  0  0  0  0  0  0
  -12.2715   -3.4349   -1.1096 H   0  0  0  0  0  0  0  0  0  0  0  0
  1  2  1  0
  2  3  1  0
  3  4  1  0
  4  5  1  0
  5  6  1  0
  6  7  1  0
  7  8  1  0
  8  9  1  0
  9 10  1  0
 10 11  1  0
 11 12  1  0
 12 13  1  0
 13 14  1  0
 14 15  1  0
 15 16  1  0
 16 17  1  0
 17 18  1  0
 18 19  1  0
 19 20  1  0
 20 21  1  0
 21 22  1  0
 22 23  1  0
 23 24  1  0
 24 25  1  0
 25 26  1  0
 26 27  1  0
 27 28  1  0
 28 29  1  0
 29 30  1  0
 30 31  1  0
 31 32  1  0
 32 33  1  0
 33 34  1  0
 34 35  2  0
 35 36  1  0
 36 37  1  0
 37 38  1  0
 38 39  2  0
 36 40  1  0
 17 15  1  0
 22 20  1  0
 38 34  1  0
  1 41  1  0
  1 42  1  0
  1 43  1  0
  2 44  1  0
  2 45  1  0
  3 46  1  0
  3 47  1  0
  4 48  1  0
  4 49  1  0
  5 50  1  0
  5 51  1  0
  6 52  1  0
  6 53  1  0
  7 54  1  0
  7 55  1  0
  8 56  1  0
  8 57  1  0
  9 58  1  0
  9 59  1  0
 10 60  1  0
 10 61  1  0
 11 62  1  0
 11 63  1  0
 12 64  1  0
 12 65  1  0
 13 66  1  0
 13 67  1  0
 14 68  1  0
 14 69  1  0
 15 70  1  0
 17 71  1  0
 18 72  1  0
 18 73  1  0
 19 74  1  0
 19 75  1  0
 20 76  1  0
 22 77  1  0
 23 78  1  0
 23 79  1  0
 24 80  1  0
 24 81  1  0
 25 82  1  0
 25 83  1  0
 26 84  1  0
 26 85  1  0
 27 86  1  0
 27 87  1  0
 28 88  1  0
 28 89  1  0
 29 90  1  0
 29 91  1  0
 30 92  1  0
 30 93  1  0
 31 94  1  0
 31 95  1  0
 32 96  1  0
 32 97  1  0
 33 98  1  0
 33 99  1  0
 35100  1  0
 36101  1  0
 40102  1  0
 40103  1  0
 40104  1  0
M  END
$$$$
