
     RDKit          3D

 49 52  0  0  0  0  0  0  0  0999 V2000
    7.4482    1.7224   -0.2973 C   0  0  0  0  0  0  0  0  0  0  0  0
    6.8866    0.6495    0.4504 O   0  0  0  0  0  0  0  0  0  0  0  0
    5.5473    0.2172    0.4143 C   0  0  0  0  0  0  0  0  0  0  0  0
    4.5537    0.8134   -0.4024 C   0  0  0  0  0  0  0  0  0  0  0  0
    4.8531    1.8854   -1.2411 O   0  0  0  0  0  0  0  0  0  0  0  0
    3.2409    0.3214   -0.3754 C   0  0  0  0  0  0  0  0  0  0  0  0
    2.8914   -0.7515    0.4564 C   0  0  0  0  0  0  0  0  0  0  0  0
    3.8779   -1.3463    1.2530 C   0  0  0  0  0  0  0  0  0  0  0  0
    5.1910   -0.8686    1.2383 C   0  0  0  0  0  0  0  0  0  0  0  0
    6.1352   -1.4923    2.0548 O   0  0  0  0  0  0  0  0  0  0  0  0
    1.4813   -1.2943    0.4567 C   0  0  1  0  0  0  0  0  0  0  0  0
    0.5528   -0.2121    0.5472 O   0  0  0  0  0  0  0  0  0  0  0  0
   -0.8107   -0.3754    0.2805 C   0  0  0  0  0  0  0  0  0  0  0  0
   -1.7054    0.6135    0.6846 C   0  0  0  0  0  0  0  0  0  0  0  0
   -3.0705    0.4628    0.4519 C   0  0  0  0  0  0  0  0  0  0  0  0
   -3.9558    1.4596    0.8752 O   0  0  0  0  0  0  0  0  0  0  0  0
   -5.3090    1.5470    0.4113 C   0  0  0  0  0  0  0  0  0  0  0  0
   -6.1647    2.1467    1.5328 C   0  0  0  0  0  0  0  0  0  0  0  0
   -5.3501    2.4578   -0.8227 C   0  0  0  0  0  0  0  0  0  0  0  0
   -5.8478    0.1812    0.0376 C   0  0  0  0  0  0  0  0  0  0  0  0
   -5.0352   -0.8287   -0.2889 C   0  0  0  0  0  0  0  0  0  0  0  0
   -3.5640   -0.6898   -0.1809 C   0  0  0  0  0  0  0  0  0  0  0  0
   -2.6581   -1.6817   -0.6350 C   0  0  0  0  0  0  0  0  0  0  0  0
   -1.2721   -1.5188   -0.3972 C   0  0  0  0  0  0  0  0  0  0  0  0
   -0.2562   -2.4938   -0.8731 C   0  0  0  0  0  0  0  0  0  0  0  0
   -0.6033   -3.5890   -1.3931 O   0  0  0  0  0  0  0  0  0  0  0  0
    1.2073   -2.1394   -0.8048 C   0  0  2  0  0  0  0  0  0  0  0  0
    1.9761   -3.3155   -0.7716 O   0  0  0  0  0  0  0  0  0  0  0  0
   -3.0987   -2.8111   -1.3323 O   0  0  0  0  0  0  0  0  0  0  0  0
    8.5241    1.8117   -0.0428 H   0  0  0  0  0  0  0  0  0  0  0  0
    6.9488    2.6781   -0.0329 H   0  0  0  0  0  0  0  0  0  0  0  0
    7.3652    1.5177   -1.3853 H   0  0  0  0  0  0  0  0  0  0  0  0
    4.1498    2.3177   -1.8290 H   0  0  0  0  0  0  0  0  0  0  0  0
    2.4890    0.7769   -1.0085 H   0  0  0  0  0  0  0  0  0  0  0  0
    3.6298   -2.1878    1.8885 H   0  0  0  0  0  0  0  0  0  0  0  0
    7.1030   -1.1957    2.0902 H   0  0  0  0  0  0  0  0  0  0  0  0
    1.3286   -1.9413    1.3504 H   0  0  0  0  0  0  0  0  0  0  0  0
   -1.3392    1.4981    1.1905 H   0  0  0  0  0  0  0  0  0  0  0  0
   -6.1385    1.4874    2.4271 H   0  0  0  0  0  0  0  0  0  0  0  0
   -5.7722    3.1443    1.8252 H   0  0  0  0  0  0  0  0  0  0  0  0
   -7.2212    2.2625    1.2067 H   0  0  0  0  0  0  0  0  0  0  0  0
   -4.7232    2.0322   -1.6359 H   0  0  0  0  0  0  0  0  0  0  0  0
   -4.9540    3.4650   -0.5713 H   0  0  0  0  0  0  0  0  0  0  0  0
   -6.3910    2.5674   -1.1976 H   0  0  0  0  0  0  0  0  0  0  0  0
   -6.9185    0.0427   -0.0589 H   0  0  0  0  0  0  0  0  0  0  0  0
   -5.4902   -1.7616   -0.5858 H   0  0  0  0  0  0  0  0  0  0  0  0
    1.4456   -1.5463   -1.7188 H   0  0  0  0  0  0  0  0  0  0  0  0
    2.8741   -3.0839   -1.1259 H   0  0  0  0  0  0  0  0  0  0  0  0
   -4.0513   -2.9544   -1.6354 H   0  0  0  0  0  0  0  0  0  0  0  0
  1  2  1  0
  2  3  1  0
  3  4  2  0
  4  5  1  0
  4  6  1  0
  6  7  2  0
  7  8  1  0
  8  9  2  0
  9 10  1  0
  7 11  1  0
 11 12  1  0
 12 13  1  0
 13 14  2  0
 14 15  1  0
 15 16  1  0
 16 17  1  0
 17 18  1  0
 17 19  1  0
 17 20  1  0
 20 21  2  0
 21 22  1  0
 22 23  1  0
 23 24  2  0
 24 25  1  0
 25 26  2  0
 25 27  1  0
 27 28  1  0
 23 29  1  0
  9  3  1  0
 27 11  1  0
 24 13  1  0
 22 15  2  0
  1 30  1  0
  1 31  1  0
  1 32  1  0
  5 33  1  0
  6 34  1  0
  8 35  1  0
 10 36  1  0
 11 37  1  1
 14 38  1  0
 18 39  1  0
 18 40  1  0
 18 41  1  0
 19 42  1  0
 19 43  1  0
 19 44  1  0
 20 45  1  0
 21 46  1  0
 27 47  1  6
 28 48  1  0
 29 49  1  0
M  END
$$$$
