
     RDKit          3D

 36 37  0  0  0  0  0  0  0  0999 V2000
    0.3195    1.2670    3.5089 O   0  0  0  0  0  0  0  0  0  0  0  0
    0.2520    0.6440    2.4157 C   0  0  0  0  0  0  0  0  0  0  0  0
    1.5148    0.2053    1.7799 C   0  0  0  0  0  0  0  0  0  0  0  0
    1.5775   -0.3777    0.5727 C   0  0  0  0  0  0  0  0  0  0  0  0
    2.8466   -0.8013   -0.0680 C   0  0  0  0  0  0  0  0  0  0  0  0
    2.8772   -0.9546   -1.4646 C   0  0  0  0  0  0  0  0  0  0  0  0
    4.0484   -1.3619   -2.1101 C   0  0  0  0  0  0  0  0  0  0  0  0
    5.2019   -1.6333   -1.3698 C   0  0  0  0  0  0  0  0  0  0  0  0
    5.1791   -1.4999    0.0240 C   0  0  0  0  0  0  0  0  0  0  0  0
    4.0099   -1.0919    0.6736 C   0  0  0  0  0  0  0  0  0  0  0  0
    6.3620   -2.0379   -2.0264 O   0  0  0  0  0  0  0  0  0  0  0  0
   -1.1046    0.4093    1.8067 C   0  0  0  0  0  0  0  0  0  0  0  0
   -1.4342    1.4957    0.7779 C   0  0  0  0  0  0  0  0  0  0  0  0
   -2.7563    1.2132    0.1172 C   0  0  0  0  0  0  0  0  0  0  0  0
   -2.8151    0.4034   -1.0288 C   0  0  0  0  0  0  0  0  0  0  0  0
   -4.0464    0.1130   -1.6241 C   0  0  0  0  0  0  0  0  0  0  0  0
   -5.2313    0.6206   -1.0738 C   0  0  0  0  0  0  0  0  0  0  0  0
   -5.1777    1.4164    0.0752 C   0  0  0  0  0  0  0  0  0  0  0  0
   -3.9475    1.7080    0.6725 C   0  0  0  0  0  0  0  0  0  0  0  0
   -6.4639    0.3382   -1.6582 O   0  0  0  0  0  0  0  0  0  0  0  0
    2.4249    0.4094    2.3274 H   0  0  0  0  0  0  0  0  0  0  0  0
    0.6730   -0.5118   -0.0049 H   0  0  0  0  0  0  0  0  0  0  0  0
    1.9945   -0.7497   -2.0586 H   0  0  0  0  0  0  0  0  0  0  0  0
    4.0587   -1.4680   -3.1875 H   0  0  0  0  0  0  0  0  0  0  0  0
    6.0650   -1.7198    0.6062 H   0  0  0  0  0  0  0  0  0  0  0  0
    4.0191   -1.0312    1.7530 H   0  0  0  0  0  0  0  0  0  0  0  0
    7.2141   -2.2431   -1.5177 H   0  0  0  0  0  0  0  0  0  0  0  0
   -1.8728    0.4259    2.6112 H   0  0  0  0  0  0  0  0  0  0  0  0
   -1.1482   -0.5994    1.3432 H   0  0  0  0  0  0  0  0  0  0  0  0
   -1.4669    2.4872    1.2815 H   0  0  0  0  0  0  0  0  0  0  0  0
   -0.6364    1.5491    0.0053 H   0  0  0  0  0  0  0  0  0  0  0  0
   -1.9081   -0.0037   -1.4588 H   0  0  0  0  0  0  0  0  0  0  0  0
   -4.0789   -0.5086   -2.5098 H   0  0  0  0  0  0  0  0  0  0  0  0
   -6.0905    1.8060    0.5077 H   0  0  0  0  0  0  0  0  0  0  0  0
   -3.9232    2.3176    1.5674 H   0  0  0  0  0  0  0  0  0  0  0  0
   -6.5362   -0.2357   -2.4902 H   0  0  0  0  0  0  0  0  0  0  0  0
  1  2  2  0
  2  3  1  0
  3  4  2  0
  4  5  1  0
  5  6  2  0
  6  7  1  0
  7  8  2  0
  8  9  1  0
  9 10  2  0
  8 11  1  0
  2 12  1  0
 12 13  1  0
 13 14  1  0
 14 15  2  0
 15 16  1  0
 16 17  2  0
 17 18  1  0
 18 19  2  0
 17 20  1  0
 10  5  1  0
 19 14  1  0
  3 21  1  0
  4 22  1  0
  6 23  1  0
  7 24  1  0
  9 25  1  0
 10 26  1  0
 11 27  1  0
 12 28  1  0
 12 29  1  0
 13 30  1  0
 13 31  1  0
 15 32  1  0
 16 33  1  0
 18 34  1  0
 19 35  1  0
 20 36  1  0
M  END
$$$$
