
     RDKit          3D

 44 48  0  0  0  0  0  0  0  0999 V2000
   -1.4807    3.7380    1.1934 C   0  0  0  0  0  0  0  0  0  0  0  0
   -2.4816    2.8170    0.7712 O   0  0  0  0  0  0  0  0  0  0  0  0
   -2.2317    1.4973    0.3596 C   0  0  0  0  0  0  0  0  0  0  0  0
   -0.9348    0.9614    0.3245 C   0  0  0  0  0  0  0  0  0  0  0  0
   -0.7050   -0.3670   -0.0855 C   0  0  0  0  0  0  0  0  0  0  0  0
    0.6135   -0.9035   -0.1141 C   0  0  0  0  0  0  0  0  0  0  0  0
    1.7953   -0.1247    0.3103 C   0  0  0  0  0  0  0  0  0  0  0  0
    2.0278    0.1199    1.6871 C   0  0  0  0  0  0  0  0  0  0  0  0
    3.1483    0.8644    2.0980 C   0  0  0  0  0  0  0  0  0  0  0  0
    4.0071    1.3424    1.1126 C   0  0  0  0  0  0  0  0  0  0  0  0
    3.7889    1.1096   -0.2066 C   0  0  0  0  0  0  0  0  0  0  0  0
    2.6928    0.3789   -0.6557 C   0  0  0  0  0  0  0  0  0  0  0  0
    4.7936    1.6979   -0.9501 O   0  0  0  0  0  0  0  0  0  0  0  0
    5.6991    2.3402   -0.0416 C   0  0  0  0  0  0  0  0  0  0  0  0
    5.1598    2.0887    1.2638 O   0  0  0  0  0  0  0  0  0  0  0  0
    0.7742   -2.2190   -0.5563 C   0  0  0  0  0  0  0  0  0  0  0  0
    1.9528   -3.0507   -0.6786 C   0  0  0  0  0  0  0  0  0  0  0  0
    3.1330   -2.7175   -0.3946 O   0  0  0  0  0  0  0  0  0  0  0  0
    1.5954   -4.3052   -1.1487 O   0  0  0  0  0  0  0  0  0  0  0  0
    0.1822   -4.3662   -1.3528 C   0  0  0  0  0  0  0  0  0  0  0  0
   -0.2855   -2.9959   -0.9481 C   0  0  0  0  0  0  0  0  0  0  0  0
   -1.5931   -2.5150   -0.9275 C   0  0  0  0  0  0  0  0  0  0  0  0
   -1.8178   -1.1751   -0.4904 C   0  0  0  0  0  0  0  0  0  0  0  0
   -3.1117   -0.6162   -0.4471 C   0  0  0  0  0  0  0  0  0  0  0  0
   -3.3200    0.7087   -0.0238 C   0  0  0  0  0  0  0  0  0  0  0  0
   -4.6012    1.2830    0.0281 O   0  0  0  0  0  0  0  0  0  0  0  0
   -5.8071    0.6144   -0.3282 C   0  0  0  0  0  0  0  0  0  0  0  0
   -2.6104   -3.3827   -1.3391 O   0  0  0  0  0  0  0  0  0  0  0  0
   -1.9638    4.6993    1.4634 H   0  0  0  0  0  0  0  0  0  0  0  0
   -0.7593    3.9226    0.3695 H   0  0  0  0  0  0  0  0  0  0  0  0
   -0.9507    3.3439    2.0863 H   0  0  0  0  0  0  0  0  0  0  0  0
   -0.1039    1.5878    0.6132 H   0  0  0  0  0  0  0  0  0  0  0  0
    1.3419   -0.2642    2.4319 H   0  0  0  0  0  0  0  0  0  0  0  0
    3.3370    1.0594    3.1454 H   0  0  0  0  0  0  0  0  0  0  0  0
    2.5389    0.2075   -1.7136 H   0  0  0  0  0  0  0  0  0  0  0  0
    5.7298    3.4322   -0.2394 H   0  0  0  0  0  0  0  0  0  0  0  0
    6.7116    1.8936   -0.1302 H   0  0  0  0  0  0  0  0  0  0  0  0
   -0.2663   -5.1443   -0.6998 H   0  0  0  0  0  0  0  0  0  0  0  0
   -0.0433   -4.5590   -2.4228 H   0  0  0  0  0  0  0  0  0  0  0  0
   -3.9702   -1.1929   -0.7393 H   0  0  0  0  0  0  0  0  0  0  0  0
   -5.9597   -0.2718    0.3235 H   0  0  0  0  0  0  0  0  0  0  0  0
   -6.6608    1.3084   -0.1878 H   0  0  0  0  0  0  0  0  0  0  0  0
   -5.7726    0.3060   -1.3945 H   0  0  0  0  0  0  0  0  0  0  0  0
   -3.5921   -3.1519   -1.3659 H   0  0  0  0  0  0  0  0  0  0  0  0
  1  2  1  0
  2  3  1  0
  3  4  2  0
  4  5  1  0
  5  6  2  0
  6  7  1  0
  7  8  2  0
  8  9  1  0
  9 10  2  0
 10 11  1  0
 11 12  2  0
 11 13  1  0
 13 14  1  0
 14 15  1  0
  6 16  1  0
 16 17  1  0
 17 18  2  0
 17 19  1  0
 19 20  1  0
 20 21  1  0
 21 22  1  0
 22 23  2  0
 23 24  1  0
 24 25  2  0
 25 26  1  0
 26 27  1  0
 22 28  1  0
 25  3  1  0
 23  5  1  0
 12  7  1  0
 21 16  2  0
 15 10  1  0
  1 29  1  0
  1 30  1  0
  1 31  1  0
  4 32  1  0
  8 33  1  0
  9 34  1  0
 12 35  1  0
 14 36  1  0
 14 37  1  0
 20 38  1  0
 20 39  1  0
 24 40  1  0
 27 41  1  0
 27 42  1  0
 27 43  1  0
 28 44  1  0
M  END
$$$$
