
     RDKit          3D

 64 67  0  0  0  0  0  0  0  0999 V2000
    1.7354    3.0291    0.5222 C   0  0  0  0  0  0  0  0  0  0  0  0
    0.8417    2.2618   -0.2788 O   0  0  0  0  0  0  0  0  0  0  0  0
    0.0557    1.1881    0.1804 C   0  0  0  0  0  0  0  0  0  0  0  0
    0.5443    0.2230    1.0933 C   0  0  0  0  0  0  0  0  0  0  0  0
    1.9552    0.2273    1.5145 C   0  0  0  0  0  0  0  0  0  0  0  0
    2.2524    0.6235    2.6747 O   0  0  0  0  0  0  0  0  0  0  0  0
    3.0031   -0.3380    0.5932 C   0  0  0  0  0  0  0  0  0  0  0  0
    4.4334   -0.0456    1.0654 C   0  0  0  0  0  0  0  0  0  0  0  0
    5.4338   -0.5962    0.0848 C   0  0  0  0  0  0  0  0  0  0  0  0
    5.9036   -1.9139    0.2155 C   0  0  0  0  0  0  0  0  0  0  0  0
    6.8058   -2.4352   -0.7171 C   0  0  0  0  0  0  0  0  0  0  0  0
    7.2365   -1.6500   -1.7901 C   0  0  0  0  0  0  0  0  0  0  0  0
    6.7625   -0.3431   -1.9347 C   0  0  0  0  0  0  0  0  0  0  0  0
    5.8603    0.1823   -1.0043 C   0  0  0  0  0  0  0  0  0  0  0  0
   -0.2925   -0.8292    1.5239 C   0  0  0  0  0  0  0  0  0  0  0  0
    0.1688   -1.7745    2.4492 O   0  0  0  0  0  0  0  0  0  0  0  0
   -1.6029   -0.9547    1.0147 C   0  0  0  0  0  0  0  0  0  0  0  0
   -2.1034    0.0467    0.1500 C   0  0  0  0  0  0  0  0  0  0  0  0
   -1.2660    1.0847   -0.3016 C   0  0  0  0  0  0  0  0  0  0  0  0
   -1.8204    2.1281   -1.2571 C   0  0  0  0  0  0  0  0  0  0  0  0
   -2.7200    3.1112   -0.5340 C   0  0  0  0  0  0  0  0  0  0  0  0
   -2.1165    4.0155    0.3616 C   0  0  0  0  0  0  0  0  0  0  0  0
   -2.8830    4.9349    1.0787 C   0  0  0  0  0  0  0  0  0  0  0  0
   -4.2653    4.9707    0.9128 C   0  0  0  0  0  0  0  0  0  0  0  0
   -4.8841    4.0903    0.0255 C   0  0  0  0  0  0  0  0  0  0  0  0
   -4.1322    3.1610   -0.7055 C   0  0  0  0  0  0  0  0  0  0  0  0
   -4.8323    2.3254   -1.5803 O   0  0  0  0  0  0  0  0  0  0  0  0
   -3.4380    0.0497   -0.2617 O   0  0  0  0  0  0  0  0  0  0  0  0
   -2.4535   -2.1601    1.4007 C   0  0  0  0  0  0  0  0  0  0  0  0
   -2.9101   -2.9742    0.2021 C   0  0  0  0  0  0  0  0  0  0  0  0
   -4.2915   -3.1455   -0.0175 C   0  0  0  0  0  0  0  0  0  0  0  0
   -4.7572   -3.8478   -1.1306 C   0  0  0  0  0  0  0  0  0  0  0  0
   -3.8535   -4.4060   -2.0328 C   0  0  0  0  0  0  0  0  0  0  0  0
   -2.4818   -4.2846   -1.8106 C   0  0  0  0  0  0  0  0  0  0  0  0
   -1.9987   -3.5984   -0.6895 C   0  0  0  0  0  0  0  0  0  0  0  0
   -0.6189   -3.5779   -0.4877 O   0  0  0  0  0  0  0  0  0  0  0  0
    2.7396    2.5635    0.5380 H   0  0  0  0  0  0  0  0  0  0  0  0
    1.8394    4.0380    0.0735 H   0  0  0  0  0  0  0  0  0  0  0  0
    1.3371    3.1420    1.5531 H   0  0  0  0  0  0  0  0  0  0  0  0
    2.8567    0.0907   -0.4224 H   0  0  0  0  0  0  0  0  0  0  0  0
    2.8552   -1.4379    0.5278 H   0  0  0  0  0  0  0  0  0  0  0  0
    4.5801    1.0513    1.1736 H   0  0  0  0  0  0  0  0  0  0  0  0
    4.5994   -0.5032    2.0656 H   0  0  0  0  0  0  0  0  0  0  0  0
    5.5699   -2.5361    1.0367 H   0  0  0  0  0  0  0  0  0  0  0  0
    7.1683   -3.4494   -0.6100 H   0  0  0  0  0  0  0  0  0  0  0  0
    7.9336   -2.0556   -2.5118 H   0  0  0  0  0  0  0  0  0  0  0  0
    7.0913    0.2616   -2.7700 H   0  0  0  0  0  0  0  0  0  0  0  0
    5.4924    1.1928   -1.1333 H   0  0  0  0  0  0  0  0  0  0  0  0
    1.0959   -1.7597    2.8542 H   0  0  0  0  0  0  0  0  0  0  0  0
   -1.0049    2.6994   -1.7486 H   0  0  0  0  0  0  0  0  0  0  0  0
   -2.3173    1.6167   -2.0999 H   0  0  0  0  0  0  0  0  0  0  0  0
   -1.0451    4.0095    0.5082 H   0  0  0  0  0  0  0  0  0  0  0  0
   -2.4031    5.6206    1.7651 H   0  0  0  0  0  0  0  0  0  0  0  0
   -4.8589    5.6838    1.4702 H   0  0  0  0  0  0  0  0  0  0  0  0
   -5.9590    4.1307   -0.0988 H   0  0  0  0  0  0  0  0  0  0  0  0
   -4.4101    1.6255   -2.1716 H   0  0  0  0  0  0  0  0  0  0  0  0
   -4.1575   -0.5049    0.1775 H   0  0  0  0  0  0  0  0  0  0  0  0
   -1.9193   -2.8509    2.0845 H   0  0  0  0  0  0  0  0  0  0  0  0
   -3.3226   -1.7914    1.9871 H   0  0  0  0  0  0  0  0  0  0  0  0
   -5.0152   -2.7230    0.6682 H   0  0  0  0  0  0  0  0  0  0  0  0
   -5.8215   -3.9573   -1.2945 H   0  0  0  0  0  0  0  0  0  0  0  0
   -4.2162   -4.9468   -2.8973 H   0  0  0  0  0  0  0  0  0  0  0  0
   -1.7878   -4.7452   -2.5023 H   0  0  0  0  0  0  0  0  0  0  0  0
   -0.1911   -3.2432    0.3621 H   0  0  0  0  0  0  0  0  0  0  0  0
  1  2  1  0
  2  3  1  0
  3  4  2  0
  4  5  1  0
  5  6  2  0
  5  7  1  0
  7  8  1  0
  8  9  1  0
  9 10  2  0
 10 11  1  0
 11 12  2  0
 12 13  1  0
 13 14  2  0
  4 15  1  0
 15 16  1  0
 15 17  2  0
 17 18  1  0
 18 19  2  0
 19 20  1  0
 20 21  1  0
 21 22  2  0
 22 23  1  0
 23 24  2  0
 24 25  1  0
 25 26  2  0
 26 27  1  0
 18 28  1  0
 17 29  1  0
 29 30  1  0
 30 31  2  0
 31 32  1  0
 32 33  2  0
 33 34  1  0
 34 35  2  0
 35 36  1  0
 19  3  1  0
 26 21  1  0
 35 30  1  0
 14  9  1  0
  1 37  1  0
  1 38  1  0
  1 39  1  0
  7 40  1  0
  7 41  1  0
  8 42  1  0
  8 43  1  0
 10 44  1  0
 11 45  1  0
 12 46  1  0
 13 47  1  0
 14 48  1  0
 16 49  1  0
 20 50  1  0
 20 51  1  0
 22 52  1  0
 23 53  1  0
 24 54  1  0
 25 55  1  0
 27 56  1  0
 28 57  1  0
 29 58  1  0
 29 59  1  0
 31 60  1  0
 32 61  1  0
 33 62  1  0
 34 63  1  0
 36 64  1  0
M  END
$$$$
