
     RDKit          3D

 27 28  0  0  0  0  0  0  0  0999 V2000
    4.0038   -1.3225    0.0103 C   0  0  0  0  0  0  0  0  0  0  0  0
    3.5741    0.1034   -0.2248 C   0  0  0  0  0  0  0  0  0  0  0  0
    4.4942    1.0330   -0.5034 C   0  0  0  0  0  0  0  0  0  0  0  0
    2.1436    0.5008   -0.1648 C   0  0  0  0  0  0  0  0  0  0  0  0
    1.1449   -0.3764    0.0208 C   0  0  0  0  0  0  0  0  0  0  0  0
   -0.2861    0.0098    0.0726 C   0  0  0  0  0  0  0  0  0  0  0  0
   -0.7086    1.3215    0.4334 C   0  0  0  0  0  0  0  0  0  0  0  0
   -2.0760    1.6484    0.4845 C   0  0  0  0  0  0  0  0  0  0  0  0
   -2.9975    0.6504    0.1823 C   0  0  0  0  0  0  0  0  0  0  0  0
   -2.6020   -0.6156   -0.1503 C   0  0  0  0  0  0  0  0  0  0  0  0
   -1.2586   -0.9763   -0.2106 C   0  0  0  0  0  0  0  0  0  0  0  0
   -3.7409   -1.3566   -0.3797 C   0  0  0  0  0  0  0  0  0  0  0  0
   -4.7963   -0.4752   -0.1676 C   0  0  0  0  0  0  0  0  0  0  0  0
   -4.3368    0.7498    0.1763 N   0  0  0  0  0  0  0  0  0  0  0  0
    5.1099   -1.4296    0.0225 H   0  0  0  0  0  0  0  0  0  0  0  0
    3.6189   -1.6735    0.9908 H   0  0  0  0  0  0  0  0  0  0  0  0
    3.6021   -1.9704   -0.7968 H   0  0  0  0  0  0  0  0  0  0  0  0
    4.2133    2.0641   -0.6805 H   0  0  0  0  0  0  0  0  0  0  0  0
    5.5462    0.7828   -0.5617 H   0  0  0  0  0  0  0  0  0  0  0  0
    1.9109    1.5476   -0.3107 H   0  0  0  0  0  0  0  0  0  0  0  0
    1.3690   -1.4330    0.0918 H   0  0  0  0  0  0  0  0  0  0  0  0
    0.0067    2.0865    0.7006 H   0  0  0  0  0  0  0  0  0  0  0  0
   -2.4004    2.6437    0.7599 H   0  0  0  0  0  0  0  0  0  0  0  0
   -0.9758   -1.9878   -0.4766 H   0  0  0  0  0  0  0  0  0  0  0  0
   -3.8033   -2.3991   -0.6625 H   0  0  0  0  0  0  0  0  0  0  0  0
   -5.8458   -0.7217   -0.2598 H   0  0  0  0  0  0  0  0  0  0  0  0
   -4.9094    1.5957    0.3933 H   0  0  0  0  0  0  0  0  0  0  0  0
  1  2  1  0
  2  3  2  0
  2  4  1  0
  4  5  2  0
  5  6  1  0
  6  7  2  0
  7  8  1  0
  8  9  2  0
  9 10  1  0
 10 11  2  0
 10 12  1  0
 12 13  2  0
 13 14  1  0
 11  6  1  0
 14  9  1  0
  1 15  1  0
  1 16  1  0
  1 17  1  0
  3 18  1  0
  3 19  1  0
  4 20  1  0
  5 21  1  0
  7 22  1  0
  8 23  1  0
 11 24  1  0
 12 25  1  0
 13 26  1  0
 14 27  1  0
M  END
$$$$
