
     RDKit          3D

 62 61  0  0  0  0  0  0  0  0999 V2000
   -6.7174    3.5867   -0.2602 C   0  0  0  0  0  0  0  0  0  0  0  0
   -5.7853    2.8491    0.7003 C   0  0  0  0  0  0  0  0  0  0  0  0
   -6.0700    1.3408    0.7660 C   0  0  0  0  0  0  0  0  0  0  0  0
   -5.5970    0.5967   -0.4943 C   0  0  0  0  0  0  0  0  0  0  0  0
   -5.9341   -0.9054   -0.4632 C   0  0  0  0  0  0  0  0  0  0  0  0
   -5.2808   -1.7032    0.6841 C   0  0  0  0  0  0  0  0  0  0  0  0
   -3.7474   -1.5951    0.7610 C   0  0  0  0  0  0  0  0  0  0  0  0
   -3.0505   -2.1226   -0.5051 C   0  0  0  0  0  0  0  0  0  0  0  0
   -1.5257   -2.2269   -0.3408 C   0  0  0  0  0  0  0  0  0  0  0  0
   -0.8379   -0.8506   -0.3558 C   0  0  0  0  0  0  0  0  0  0  0  0
    0.6841   -0.9495   -0.1664 C   0  0  0  0  0  0  0  0  0  0  0  0
    1.3955   -1.5682   -1.3830 C   0  0  0  0  0  0  0  0  0  0  0  0
    2.9209   -1.3922   -1.3245 C   0  0  0  0  0  0  0  0  0  0  0  0
    3.5633   -2.1899   -0.1765 C   0  0  0  0  0  0  0  0  0  0  0  0
    5.0985   -2.2474   -0.2738 C   0  0  0  0  0  0  0  0  0  0  0  0
    5.7993   -0.8772   -0.2359 C   0  0  0  0  0  0  0  0  0  0  0  0
    5.5241   -0.1009    1.0636 C   0  0  0  0  0  0  0  0  0  0  0  0
    6.4350    1.1263    1.2220 C   0  0  0  0  0  0  0  0  0  0  0  0
    6.1120    2.2342    0.2089 C   0  0  0  0  0  0  0  0  0  0  0  0
    6.9420    3.4854    0.4803 C   0  0  0  0  0  0  0  0  0  0  0  0
   -6.5477    4.6802   -0.1705 H   0  0  0  0  0  0  0  0  0  0  0  0
   -6.5162    3.2927   -1.3108 H   0  0  0  0  0  0  0  0  0  0  0  0
   -7.7788    3.3740   -0.0128 H   0  0  0  0  0  0  0  0  0  0  0  0
   -5.9275    3.2773    1.7165 H   0  0  0  0  0  0  0  0  0  0  0  0
   -4.7283    3.0278    0.4066 H   0  0  0  0  0  0  0  0  0  0  0  0
   -7.1563    1.1676    0.9271 H   0  0  0  0  0  0  0  0  0  0  0  0
   -5.5290    0.9400    1.6487 H   0  0  0  0  0  0  0  0  0  0  0  0
   -4.5060    0.7443   -0.6399 H   0  0  0  0  0  0  0  0  0  0  0  0
   -6.1027    1.0262   -1.3842 H   0  0  0  0  0  0  0  0  0  0  0  0
   -7.0371   -1.0215   -0.3849 H   0  0  0  0  0  0  0  0  0  0  0  0
   -5.6412   -1.3564   -1.4352 H   0  0  0  0  0  0  0  0  0  0  0  0
   -5.7123   -1.3760    1.6535 H   0  0  0  0  0  0  0  0  0  0  0  0
   -5.5582   -2.7735    0.5663 H   0  0  0  0  0  0  0  0  0  0  0  0
   -3.4569   -0.5437    0.9595 H   0  0  0  0  0  0  0  0  0  0  0  0
   -3.4110   -2.1958    1.6341 H   0  0  0  0  0  0  0  0  0  0  0  0
   -3.2815   -1.4689   -1.3733 H   0  0  0  0  0  0  0  0  0  0  0  0
   -3.4426   -3.1383   -0.7318 H   0  0  0  0  0  0  0  0  0  0  0  0
   -1.1403   -2.8346   -1.1866 H   0  0  0  0  0  0  0  0  0  0  0  0
   -1.2821   -2.7661    0.6007 H   0  0  0  0  0  0  0  0  0  0  0  0
   -1.0647   -0.3224   -1.3079 H   0  0  0  0  0  0  0  0  0  0  0  0
   -1.2370   -0.2316    0.4749 H   0  0  0  0  0  0  0  0  0  0  0  0
    1.0745    0.0788   -0.0023 H   0  0  0  0  0  0  0  0  0  0  0  0
    0.9027   -1.5437    0.7469 H   0  0  0  0  0  0  0  0  0  0  0  0
    1.0303   -1.0741   -2.3096 H   0  0  0  0  0  0  0  0  0  0  0  0
    1.1555   -2.6500   -1.4586 H   0  0  0  0  0  0  0  0  0  0  0  0
    3.3454   -1.7412   -2.2911 H   0  0  0  0  0  0  0  0  0  0  0  0
    3.1579   -0.3118   -1.2192 H   0  0  0  0  0  0  0  0  0  0  0  0
    3.1848   -3.2352   -0.2053 H   0  0  0  0  0  0  0  0  0  0  0  0
    3.2664   -1.7614    0.8033 H   0  0  0  0  0  0  0  0  0  0  0  0
    5.4826   -2.8717    0.5622 H   0  0  0  0  0  0  0  0  0  0  0  0
    5.3801   -2.7629   -1.2178 H   0  0  0  0  0  0  0  0  0  0  0  0
    6.8929   -1.0557   -0.3263 H   0  0  0  0  0  0  0  0  0  0  0  0
    5.4919   -0.2767   -1.1167 H   0  0  0  0  0  0  0  0  0  0  0  0
    4.4630    0.2272    1.0965 H   0  0  0  0  0  0  0  0  0  0  0  0
    5.6997   -0.7741    1.9309 H   0  0  0  0  0  0  0  0  0  0  0  0
    6.2942    1.5268    2.2500 H   0  0  0  0  0  0  0  0  0  0  0  0
    7.4999    0.8210    1.1230 H   0  0  0  0  0  0  0  0  0  0  0  0
    5.0340    2.4987    0.2695 H   0  0  0  0  0  0  0  0  0  0  0  0
    6.3330    1.8842   -0.8217 H   0  0  0  0  0  0  0  0  0  0  0  0
    6.7018    4.2623   -0.2761 H   0  0  0  0  0  0  0  0  0  0  0  0
    6.7124    3.8899    1.4891 H   0  0  0  0  0  0  0  0  0  0  0  0
    8.0259    3.2506    0.4167 H   0  0  0  0  0  0  0  0  0  0  0  0
  1  2  1  0
  2  3  1  0
  3  4  1  0
  4  5  1  0
  5  6  1  0
  6  7  1  0
  7  8  1  0
  8  9  1  0
  9 10  1  0
 10 11  1  0
 11 12  1  0
 12 13  1  0
 13 14  1  0
 14 15  1  0
 15 16  1  0
 16 17  1  0
 17 18  1  0
 18 19  1  0
 19 20  1  0
  1 21  1  0
  1 22  1  0
  1 23  1  0
  2 24  1  0
  2 25  1  0
  3 26  1  0
  3 27  1  0
  4 28  1  0
  4 29  1  0
  5 30  1  0
  5 31  1  0
  6 32  1  0
  6 33  1  0
  7 34  1  0
  7 35  1  0
  8 36  1  0
  8 37  1  0
  9 38  1  0
  9 39  1  0
 10 40  1  0
 10 41  1  0
 11 42  1  0
 11 43  1  0
 12 44  1  0
 12 45  1  0
 13 46  1  0
 13 47  1  0
 14 48  1  0
 14 49  1  0
 15 50  1  0
 15 51  1  0
 16 52  1  0
 16 53  1  0
 17 54  1  0
 17 55  1  0
 18 56  1  0
 18 57  1  0
 19 58  1  0
 19 59  1  0
 20 60  1  0
 20 61  1  0
 20 62  1  0
M  END
$$$$
