
     RDKit          3D

 46 50  0  0  0  0  0  0  0  0999 V2000
   -1.5831    0.9589    0.8788 O   0  0  0  0  0  0  0  0  0  0  0  0
   -2.6922    0.6751    0.3461 C   0  0  0  0  0  0  0  0  0  0  0  0
   -3.8263    0.2232    1.1825 C   0  0  0  0  0  0  0  0  0  0  0  0
   -5.0633   -0.0952    0.5867 C   0  0  0  0  0  0  0  0  0  0  0  0
   -6.1374   -0.5287    1.3729 C   0  0  0  0  0  0  0  0  0  0  0  0
   -5.9886   -0.6490    2.7595 C   0  0  0  0  0  0  0  0  0  0  0  0
   -4.7646   -0.3370    3.3622 C   0  0  0  0  0  0  0  0  0  0  0  0
   -3.6875    0.0985    2.5805 C   0  0  0  0  0  0  0  0  0  0  0  0
   -2.8514    0.7771   -1.0421 O   0  0  0  0  0  0  0  0  0  0  0  0
   -1.8001    1.1562   -1.9271 C   0  0  0  0  0  0  0  0  0  0  0  0
   -0.7468    0.0430   -2.0915 C   0  0  2  0  0  0  0  0  0  0  0  0
   -1.1567   -0.8794   -3.0789 O   0  0  0  0  0  0  0  0  0  0  0  0
   -1.0921   -1.3970   -1.7642 C   0  0  0  0  0  0  0  0  0  0  0  0
    0.2085   -1.9778   -1.2178 C   0  0  0  0  0  0  0  0  0  0  0  0
    1.1582   -2.0275   -2.4066 C   0  0  0  0  0  0  0  0  0  0  0  0
    1.8391   -0.6620   -2.2278 C   0  0  1  0  0  0  0  0  0  0  0  0
    0.7538    0.4860   -2.3539 C   0  0  1  0  0  0  0  0  0  0  0  0
    0.8459    1.0534   -3.6364 O   0  0  0  0  0  0  0  0  0  0  0  0
    2.5664   -0.5858   -0.9955 O   0  0  0  0  0  0  0  0  0  0  0  0
    3.5048    0.4139   -0.7128 C   0  0  0  0  0  0  0  0  0  0  0  0
    3.8248    1.2526   -1.6018 O   0  0  0  0  0  0  0  0  0  0  0  0
    4.1151    0.4852    0.6320 C   0  0  0  0  0  0  0  0  0  0  0  0
    3.7152   -0.4097    1.6444 C   0  0  0  0  0  0  0  0  0  0  0  0
    4.2836   -0.3365    2.9202 C   0  0  0  0  0  0  0  0  0  0  0  0
    5.2581    0.6247    3.1969 C   0  0  0  0  0  0  0  0  0  0  0  0
    5.6653    1.5162    2.1990 C   0  0  0  0  0  0  0  0  0  0  0  0
    5.0958    1.4514    0.9232 C   0  0  0  0  0  0  0  0  0  0  0  0
    0.9093   -3.1285   -1.5585 O   0  0  0  0  0  0  0  0  0  0  0  0
   -5.2019   -0.0122   -0.4862 H   0  0  0  0  0  0  0  0  0  0  0  0
   -7.0855   -0.7722    0.9060 H   0  0  0  0  0  0  0  0  0  0  0  0
   -6.8213   -0.9855    3.3665 H   0  0  0  0  0  0  0  0  0  0  0  0
   -4.6487   -0.4319    4.4370 H   0  0  0  0  0  0  0  0  0  0  0  0
   -2.7481    0.3343    3.0691 H   0  0  0  0  0  0  0  0  0  0  0  0
   -1.3185    2.0807   -1.5451 H   0  0  0  0  0  0  0  0  0  0  0  0
   -2.2384    1.4012   -2.9171 H   0  0  0  0  0  0  0  0  0  0  0  0
   -2.0626   -1.5555   -1.2520 H   0  0  0  0  0  0  0  0  0  0  0  0
    0.5490   -1.5904   -0.2318 H   0  0  0  0  0  0  0  0  0  0  0  0
    0.7324   -2.2264   -3.4139 H   0  0  0  0  0  0  0  0  0  0  0  0
    2.5707   -0.5687   -3.0610 H   0  0  0  0  0  0  0  0  0  0  0  0
    1.0028    1.2648   -1.5964 H   0  0  0  0  0  0  0  0  0  0  0  0
    0.4399    1.9582   -3.5841 H   0  0  0  0  0  0  0  0  0  0  0  0
    2.9599   -1.1615    1.4546 H   0  0  0  0  0  0  0  0  0  0  0  0
    3.9689   -1.0276    3.6955 H   0  0  0  0  0  0  0  0  0  0  0  0
    5.6978    0.6779    4.1839 H   0  0  0  0  0  0  0  0  0  0  0  0
    6.4242    2.2593    2.4124 H   0  0  0  0  0  0  0  0  0  0  0  0
    5.4257    2.1545    0.1665 H   0  0  0  0  0  0  0  0  0  0  0  0
  1  2  2  0
  2  3  1  0
  3  4  2  0
  4  5  1  0
  5  6  2  0
  6  7  1  0
  7  8  2  0
  2  9  1  0
  9 10  1  0
 11 10  1  1
 11 12  1  0
 12 13  1  0
 13 14  1  0
 14 15  1  0
 15 16  1  0
 16 17  1  0
 17 18  1  0
 16 19  1  0
 19 20  1  0
 20 21  2  0
 20 22  1  0
 22 23  2  0
 23 24  1  0
 24 25  2  0
 25 26  1  0
 26 27  2  0
 15 28  1  0
  8  3  1  0
 13 11  1  0
 28 14  1  0
 17 11  1  0
 27 22  1  0
  4 29  1  0
  5 30  1  0
  6 31  1  0
  7 32  1  0
  8 33  1  0
 10 34  1  0
 10 35  1  0
 13 36  1  0
 14 37  1  0
 15 38  1  0
 16 39  1  6
 17 40  1  1
 18 41  1  0
 23 42  1  0
 24 43  1  0
 25 44  1  0
 26 45  1  0
 27 46  1  0
M  END
$$$$
