
     RDKit          3D

 77 80  0  0  0  0  0  0  0  0999 V2000
    7.1004   -2.2962   -1.6725 O   0  0  0  0  0  0  0  0  0  0  0  0
    5.9649   -1.4751   -1.7688 C   0  0  1  0  0  0  0  0  0  0  0  0
    4.7021   -2.3144   -1.4785 C   0  0  0  0  0  0  0  0  0  0  0  0
    4.2233   -2.1560   -0.0309 C   0  0  0  0  0  0  0  0  0  0  0  0
    3.7957   -0.6858    0.3045 C   0  0  1  0  0  0  0  0  0  0  0  0
    4.7647    0.3550   -0.4072 C   0  0  0  0  0  0  0  0  0  0  0  0
    6.1175   -0.2708   -0.8118 C   0  0  0  0  0  0  0  0  0  0  0  0
    4.1227    1.0758   -1.6001 C   0  0  0  0  0  0  0  0  0  0  0  0
    2.8275    1.6939   -1.1828 C   0  0  0  0  0  0  0  0  0  0  0  0
    1.9352    0.9812   -0.4729 C   0  0  0  0  0  0  0  0  0  0  0  0
    2.2683   -0.4747   -0.1206 C   0  0  2  0  0  0  0  0  0  0  0  0
    1.2305   -1.1293    0.8622 C   0  0  0  0  0  0  0  0  0  0  0  0
   -0.2297   -0.6616    0.6777 C   0  0  0  0  0  0  0  0  0  0  0  0
   -0.3274    0.8841    0.6875 C   0  0  1  0  0  0  0  0  0  0  0  0
    0.4705    1.3656   -0.5285 C   0  0  1  0  0  0  0  0  0  0  0  0
    0.0638    2.8223   -0.7128 C   0  0  0  0  0  0  0  0  0  0  0  0
   -1.4225    2.8441   -0.3262 C   0  0  0  0  0  0  0  0  0  0  0  0
   -1.7305    1.4782    0.3448 C   0  0  2  0  0  0  0  0  0  0  0  0
   -2.8973    1.5486    1.4015 C   0  0  1  0  0  0  0  0  0  0  0  0
   -3.4322    0.1692    1.8685 C   0  0  0  0  0  0  0  0  0  0  0  0
   -3.8615   -0.8171    0.7590 C   0  0  0  0  0  0  0  0  0  0  0  0
   -4.9360   -0.2822   -0.2282 C   0  0  1  0  0  0  0  0  0  0  0  0
   -5.1639   -1.2266   -1.4512 C   0  0  0  0  0  0  0  0  0  0  0  0
   -3.9662   -1.2168   -2.4164 C   0  0  0  0  0  0  0  0  0  0  0  0
   -5.5174   -2.6714   -1.0604 C   0  0  0  0  0  0  0  0  0  0  0  0
   -6.2609    0.0127    0.4987 C   0  0  0  0  0  0  0  0  0  0  0  0
   -2.6536    2.4343    2.6419 C   0  0  0  0  0  0  0  0  0  0  0  0
    0.2441    1.4672    2.0130 C   0  0  0  0  0  0  0  0  0  0  0  0
    3.9884   -0.4950    1.8346 C   0  0  0  0  0  0  0  0  0  0  0  0
    7.8421   -1.8144   -2.1239 H   0  0  0  0  0  0  0  0  0  0  0  0
    5.8814   -1.0941   -2.8139 H   0  0  0  0  0  0  0  0  0  0  0  0
    4.9062   -3.3892   -1.6786 H   0  0  0  0  0  0  0  0  0  0  0  0
    3.8878   -2.0188   -2.1730 H   0  0  0  0  0  0  0  0  0  0  0  0
    3.3902   -2.8655    0.1534 H   0  0  0  0  0  0  0  0  0  0  0  0
    5.0550   -2.4860    0.6321 H   0  0  0  0  0  0  0  0  0  0  0  0
    5.0152    1.1732    0.3085 H   0  0  0  0  0  0  0  0  0  0  0  0
    6.7681    0.4971   -1.2855 H   0  0  0  0  0  0  0  0  0  0  0  0
    6.6399   -0.6010    0.1134 H   0  0  0  0  0  0  0  0  0  0  0  0
    4.8002    1.8707   -1.9813 H   0  0  0  0  0  0  0  0  0  0  0  0
    3.9226    0.3674   -2.4306 H   0  0  0  0  0  0  0  0  0  0  0  0
    2.5861    2.6801   -1.5655 H   0  0  0  0  0  0  0  0  0  0  0  0
    2.1170   -1.0124   -1.0822 H   0  0  0  0  0  0  0  0  0  0  0  0
    1.4831   -0.9338    1.9195 H   0  0  0  0  0  0  0  0  0  0  0  0
    1.2539   -2.2326    0.7393 H   0  0  0  0  0  0  0  0  0  0  0  0
   -0.8351   -1.0948    1.4974 H   0  0  0  0  0  0  0  0  0  0  0  0
   -0.6200   -1.0751   -0.2784 H   0  0  0  0  0  0  0  0  0  0  0  0
    0.0862    0.8413   -1.4382 H   0  0  0  0  0  0  0  0  0  0  0  0
    0.6527    3.4806   -0.0370 H   0  0  0  0  0  0  0  0  0  0  0  0
    0.2048    3.1528   -1.7652 H   0  0  0  0  0  0  0  0  0  0  0  0
   -1.6133    3.7119    0.3332 H   0  0  0  0  0  0  0  0  0  0  0  0
   -2.0526    2.9709   -1.2344 H   0  0  0  0  0  0  0  0  0  0  0  0
   -2.1295    0.8548   -0.4862 H   0  0  0  0  0  0  0  0  0  0  0  0
   -3.7377    2.0516    0.8768 H   0  0  0  0  0  0  0  0  0  0  0  0
   -2.6668   -0.3229    2.5022 H   0  0  0  0  0  0  0  0  0  0  0  0
   -4.3032    0.3311    2.5398 H   0  0  0  0  0  0  0  0  0  0  0  0
   -4.2541   -1.7260    1.2636 H   0  0  0  0  0  0  0  0  0  0  0  0
   -2.9637   -1.1442    0.2059 H   0  0  0  0  0  0  0  0  0  0  0  0
   -4.5887    0.6839   -0.6495 H   0  0  0  0  0  0  0  0  0  0  0  0
   -6.0256   -0.8258   -2.0309 H   0  0  0  0  0  0  0  0  0  0  0  0
   -3.6890   -0.1748   -2.6834 H   0  0  0  0  0  0  0  0  0  0  0  0
   -3.0827   -1.7232   -1.9758 H   0  0  0  0  0  0  0  0  0  0  0  0
   -4.2340   -1.7486   -3.3544 H   0  0  0  0  0  0  0  0  0  0  0  0
   -6.3946   -2.6945   -0.3822 H   0  0  0  0  0  0  0  0  0  0  0  0
   -4.6599   -3.1743   -0.5662 H   0  0  0  0  0  0  0  0  0  0  0  0
   -5.7800   -3.2532   -1.9696 H   0  0  0  0  0  0  0  0  0  0  0  0
   -6.1385    0.8722    1.1902 H   0  0  0  0  0  0  0  0  0  0  0  0
   -6.6011   -0.8665    1.0850 H   0  0  0  0  0  0  0  0  0  0  0  0
   -7.0541    0.2888   -0.2282 H   0  0  0  0  0  0  0  0  0  0  0  0
   -2.1677    3.3967    2.3980 H   0  0  0  0  0  0  0  0  0  0  0  0
   -3.6305    2.6824    3.1103 H   0  0  0  0  0  0  0  0  0  0  0  0
   -2.0619    1.9091    3.4160 H   0  0  0  0  0  0  0  0  0  0  0  0
   -0.1571    0.9108    2.8843 H   0  0  0  0  0  0  0  0  0  0  0  0
    1.3468    1.3850    2.0616 H   0  0  0  0  0  0  0  0  0  0  0  0
    0.0185    2.5465    2.1225 H   0  0  0  0  0  0  0  0  0  0  0  0
    5.0690   -0.4589    2.0931 H   0  0  0  0  0  0  0  0  0  0  0  0
    3.5664   -1.3430    2.4144 H   0  0  0  0  0  0  0  0  0  0  0  0
    3.5279    0.4558    2.1743 H   0  0  0  0  0  0  0  0  0  0  0  0
  1  2  1  0
  2  3  1  0
  3  4  1  0
  4  5  1  0
  5  6  1  0
  6  7  1  0
  6  8  1  0
  8  9  1  0
  9 10  2  0
 10 11  1  0
 11 12  1  0
 12 13  1  0
 13 14  1  0
 14 15  1  0
 15 16  1  0
 16 17  1  0
 17 18  1  0
 18 19  1  0
 19 20  1  0
 20 21  1  0
 21 22  1  0
 22 23  1  0
 23 24  1  0
 23 25  1  0
 22 26  1  0
 19 27  1  0
 14 28  1  1
  5 29  1  1
  7  2  1  0
 15 10  1  0
 11  5  1  0
 18 14  1  0
  1 30  1  0
  2 31  1  6
  3 32  1  0
  3 33  1  0
  4 34  1  0
  4 35  1  0
  6 36  1  0
  7 37  1  0
  7 38  1  0
  8 39  1  0
  8 40  1  0
  9 41  1  0
 11 42  1  6
 12 43  1  0
 12 44  1  0
 13 45  1  0
 13 46  1  0
 15 47  1  6
 16 48  1  0
 16 49  1  0
 17 50  1  0
 17 51  1  0
 18 52  1  6
 19 53  1  6
 20 54  1  0
 20 55  1  0
 21 56  1  0
 21 57  1  0
 22 58  1  6
 23 59  1  0
 24 60  1  0
 24 61  1  0
 24 62  1  0
 25 63  1  0
 25 64  1  0
 25 65  1  0
 26 66  1  0
 26 67  1  0
 26 68  1  0
 27 69  1  0
 27 70  1  0
 27 71  1  0
 28 72  1  0
 28 73  1  0
 28 74  1  0
 29 75  1  0
 29 76  1  0
 29 77  1  0
M  END
$$$$
