
     RDKit          3D

 75 78  0  0  0  0  0  0  0  0999 V2000
    8.0641    1.3659   -1.1193 O   0  0  0  0  0  0  0  0  0  0  0  0
    7.0818    0.4224   -0.7765 C   0  0  0  0  0  0  0  0  0  0  0  0
    6.1783    0.1904   -1.9968 C   0  0  0  0  0  0  0  0  0  0  0  0
    4.9242   -0.6727   -1.7226 C   0  0  0  0  0  0  0  0  0  0  0  0
    4.4177   -0.6960   -0.2398 C   0  0  1  0  0  0  0  0  0  0  0  0
    4.7861    0.6380    0.4733 C   0  0  0  0  0  0  0  0  0  0  0  0
    6.3157    0.8965    0.4887 C   0  0  0  0  0  0  0  0  0  0  0  0
    4.0473    1.8583   -0.1275 C   0  0  0  0  0  0  0  0  0  0  0  0
    2.6085    1.6025   -0.4670 C   0  0  0  0  0  0  0  0  0  0  0  0
    2.0817    0.3694   -0.5940 C   0  0  0  0  0  0  0  0  0  0  0  0
    2.8524   -0.8931   -0.2284 C   0  0  2  0  0  0  0  0  0  0  0  0
    2.2481   -1.4655    1.0944 C   0  0  0  0  0  0  0  0  0  0  0  0
    0.7004   -1.6143    1.0439 C   0  0  0  0  0  0  0  0  0  0  0  0
   -0.0089   -0.2949    0.6204 C   0  0  1  0  0  0  0  0  0  0  0  0
    0.5942    0.1317   -0.7257 C   0  0  1  0  0  0  0  0  0  0  0  0
   -0.3514    1.1880   -1.2764 C   0  0  0  0  0  0  0  0  0  0  0  0
   -1.7337    0.7010   -0.8181 C   0  0  0  0  0  0  0  0  0  0  0  0
   -1.5085   -0.4379    0.2190 C   0  0  2  0  0  0  0  0  0  0  0  0
   -2.5806   -0.4104    1.3554 C   0  0  1  0  0  0  0  0  0  0  0  0
   -3.9705   -0.4778    0.7572 C   0  0  0  0  0  0  0  0  0  0  0  0
   -5.0295    0.0654    1.3828 C   0  0  0  0  0  0  0  0  0  0  0  0
   -6.4441    0.0101    0.8392 C   0  0  1  0  0  0  0  0  0  0  0  0
   -6.7022    1.1023   -0.2442 C   0  0  0  0  0  0  0  0  0  0  0  0
   -8.2022    1.2667   -0.5353 C   0  0  0  0  0  0  0  0  0  0  0  0
   -5.9345    0.8868   -1.5592 C   0  0  0  0  0  0  0  0  0  0  0  0
   -6.8475   -1.4168    0.4228 C   0  0  0  0  0  0  0  0  0  0  0  0
   -2.4240   -1.5754    2.3436 C   0  0  0  0  0  0  0  0  0  0  0  0
    0.1787    0.7942    1.7218 C   0  0  0  0  0  0  0  0  0  0  0  0
    5.0885   -1.8978    0.4879 C   0  0  0  0  0  0  0  0  0  0  0  0
    8.7759    1.3040   -0.4293 H   0  0  0  0  0  0  0  0  0  0  0  0
    7.5928   -0.5418   -0.5583 H   0  0  0  0  0  0  0  0  0  0  0  0
    6.7791   -0.3002   -2.7939 H   0  0  0  0  0  0  0  0  0  0  0  0
    5.8737    1.1700   -2.4202 H   0  0  0  0  0  0  0  0  0  0  0  0
    5.1194   -1.7117   -2.0704 H   0  0  0  0  0  0  0  0  0  0  0  0
    4.1229   -0.2907   -2.3932 H   0  0  0  0  0  0  0  0  0  0  0  0
    4.4555    0.5652    1.5340 H   0  0  0  0  0  0  0  0  0  0  0  0
    6.7532    0.3743    1.3680 H   0  0  0  0  0  0  0  0  0  0  0  0
    6.5057    1.9788    0.6658 H   0  0  0  0  0  0  0  0  0  0  0  0
    4.5461    2.2342   -1.0399 H   0  0  0  0  0  0  0  0  0  0  0  0
    4.0816    2.6890    0.6104 H   0  0  0  0  0  0  0  0  0  0  0  0
    2.0013    2.4798   -0.6488 H   0  0  0  0  0  0  0  0  0  0  0  0
    2.6236   -1.6559   -1.0078 H   0  0  0  0  0  0  0  0  0  0  0  0
    2.6535   -2.4793    1.2924 H   0  0  0  0  0  0  0  0  0  0  0  0
    2.5357   -0.8252    1.9541 H   0  0  0  0  0  0  0  0  0  0  0  0
    0.3562   -1.9463    2.0423 H   0  0  0  0  0  0  0  0  0  0  0  0
    0.4469   -2.4261    0.3269 H   0  0  0  0  0  0  0  0  0  0  0  0
    0.4997   -0.7231   -1.4402 H   0  0  0  0  0  0  0  0  0  0  0  0
   -0.2869    1.2484   -2.3848 H   0  0  0  0  0  0  0  0  0  0  0  0
   -0.1589    2.1906   -0.8433 H   0  0  0  0  0  0  0  0  0  0  0  0
   -2.3120    0.3163   -1.6866 H   0  0  0  0  0  0  0  0  0  0  0  0
   -2.2944    1.5533   -0.3738 H   0  0  0  0  0  0  0  0  0  0  0  0
   -1.6249   -1.4043   -0.3259 H   0  0  0  0  0  0  0  0  0  0  0  0
   -2.4912    0.5444    1.9181 H   0  0  0  0  0  0  0  0  0  0  0  0
   -4.1064   -1.0018   -0.1839 H   0  0  0  0  0  0  0  0  0  0  0  0
   -4.8797    0.5529    2.3428 H   0  0  0  0  0  0  0  0  0  0  0  0
   -7.0961    0.2675    1.7040 H   0  0  0  0  0  0  0  0  0  0  0  0
   -6.3564    2.0728    0.1779 H   0  0  0  0  0  0  0  0  0  0  0  0
   -8.7692    1.4115    0.4087 H   0  0  0  0  0  0  0  0  0  0  0  0
   -8.3696    2.1612   -1.1727 H   0  0  0  0  0  0  0  0  0  0  0  0
   -8.6052    0.3803   -1.0685 H   0  0  0  0  0  0  0  0  0  0  0  0
   -4.8409    0.9208   -1.3881 H   0  0  0  0  0  0  0  0  0  0  0  0
   -6.2088   -0.0759   -2.0367 H   0  0  0  0  0  0  0  0  0  0  0  0
   -6.1730    1.7037   -2.2734 H   0  0  0  0  0  0  0  0  0  0  0  0
   -7.9356   -1.4688    0.2135 H   0  0  0  0  0  0  0  0  0  0  0  0
   -6.2956   -1.7587   -0.4753 H   0  0  0  0  0  0  0  0  0  0  0  0
   -6.6337   -2.1246    1.2522 H   0  0  0  0  0  0  0  0  0  0  0  0
   -1.5682   -1.4030    3.0229 H   0  0  0  0  0  0  0  0  0  0  0  0
   -3.3225   -1.6622    2.9922 H   0  0  0  0  0  0  0  0  0  0  0  0
   -2.2862   -2.5366    1.8035 H   0  0  0  0  0  0  0  0  0  0  0  0
   -0.3820    1.7210    1.4811 H   0  0  0  0  0  0  0  0  0  0  0  0
    1.2409    1.0781    1.8552 H   0  0  0  0  0  0  0  0  0  0  0  0
   -0.1784    0.4260    2.7043 H   0  0  0  0  0  0  0  0  0  0  0  0
    4.9175   -1.8496    1.5844 H   0  0  0  0  0  0  0  0  0  0  0  0
    6.1810   -1.9368    0.3345 H   0  0  0  0  0  0  0  0  0  0  0  0
    4.6835   -2.8588    0.1036 H   0  0  0  0  0  0  0  0  0  0  0  0
  1  2  1  0
  2  3  1  0
  3  4  1  0
  4  5  1  0
  5  6  1  0
  6  7  1  0
  6  8  1  0
  8  9  1  0
  9 10  2  0
 10 11  1  0
 11 12  1  0
 12 13  1  0
 13 14  1  0
 14 15  1  0
 15 16  1  0
 16 17  1  0
 17 18  1  0
 18 19  1  0
 19 20  1  0
 20 21  2  0
 21 22  1  0
 22 23  1  0
 23 24  1  0
 23 25  1  0
 22 26  1  0
 19 27  1  0
 14 28  1  1
  5 29  1  1
  7  2  1  0
 15 10  1  0
 11  5  1  0
 18 14  1  0
  1 30  1  0
  2 31  1  0
  3 32  1  0
  3 33  1  0
  4 34  1  0
  4 35  1  0
  6 36  1  0
  7 37  1  0
  7 38  1  0
  8 39  1  0
  8 40  1  0
  9 41  1  0
 11 42  1  6
 12 43  1  0
 12 44  1  0
 13 45  1  0
 13 46  1  0
 15 47  1  6
 16 48  1  0
 16 49  1  0
 17 50  1  0
 17 51  1  0
 18 52  1  6
 19 53  1  1
 20 54  1  0
 21 55  1  0
 22 56  1  1
 23 57  1  0
 24 58  1  0
 24 59  1  0
 24 60  1  0
 25 61  1  0
 25 62  1  0
 25 63  1  0
 26 64  1  0
 26 65  1  0
 26 66  1  0
 27 67  1  0
 27 68  1  0
 27 69  1  0
 28 70  1  0
 28 71  1  0
 28 72  1  0
 29 73  1  0
 29 74  1  0
 29 75  1  0
M  END
$$$$
