
     RDKit          3D

 73 76  0  0  0  0  0  0  0  0999 V2000
    6.4731   -0.3252    2.4903 O   0  0  0  0  0  0  0  0  0  0  0  0
    6.4273   -1.0734    1.3014 C   0  0  1  0  0  0  0  0  0  0  0  0
    5.2690   -2.0693    1.3291 C   0  0  0  0  0  0  0  0  0  0  0  0
    3.9352   -1.3592    1.5870 C   0  0  0  0  0  0  0  0  0  0  0  0
    3.6836   -0.0594    0.7294 C   0  0  1  0  0  0  0  0  0  0  0  0
    4.8522    0.2413   -0.2249 C   0  0  0  0  0  0  0  0  0  0  0  0
    4.6463    0.9791   -1.3267 C   0  0  0  0  0  0  0  0  0  0  0  0
    3.2982    1.3473   -1.7757 C   0  0  0  0  0  0  0  0  0  0  0  0
    2.2058    0.8304   -1.1979 C   0  0  0  0  0  0  0  0  0  0  0  0
    2.3510   -0.2317   -0.1077 C   0  0  2  0  0  0  0  0  0  0  0  0
    1.0618   -0.3520    0.7797 C   0  0  0  0  0  0  0  0  0  0  0  0
   -0.2676   -0.2400   -0.0001 C   0  0  0  0  0  0  0  0  0  0  0  0
   -0.2941    1.0326   -0.8836 C   0  0  1  0  0  0  0  0  0  0  0  0
    0.8609    0.9031   -1.8818 C   0  0  1  0  0  0  0  0  0  0  0  0
    0.5795    1.9619   -2.9426 C   0  0  0  0  0  0  0  0  0  0  0  0
   -0.9544    1.9795   -3.0572 C   0  0  0  0  0  0  0  0  0  0  0  0
   -1.4924    1.1358   -1.8724 C   0  0  2  0  0  0  0  0  0  0  0  0
   -2.9250    1.5282   -1.3658 C   0  0  1  0  0  0  0  0  0  0  0  0
   -3.4007    0.5843   -0.2856 C   0  0  0  0  0  0  0  0  0  0  0  0
   -3.7006   -0.6972   -0.5515 C   0  0  0  0  0  0  0  0  0  0  0  0
   -4.0938   -1.6578    0.5493 C   0  0  1  0  0  0  0  0  0  0  0  0
   -5.5331   -1.3616    1.0677 C   0  0  0  0  0  0  0  0  0  0  0  0
   -6.6242   -1.6249    0.0168 C   0  0  0  0  0  0  0  0  0  0  0  0
   -5.8455   -2.1231    2.3642 C   0  0  0  0  0  0  0  0  0  0  0  0
   -3.8936   -3.1071    0.0734 C   0  0  0  0  0  0  0  0  0  0  0  0
   -3.1426    2.9854   -0.9125 C   0  0  0  0  0  0  0  0  0  0  0  0
   -0.1593    2.3114   -0.0053 C   0  0  0  0  0  0  0  0  0  0  0  0
    6.2843   -0.1422    0.0940 C   0  0  0  0  0  0  0  0  0  0  0  0
    3.5883    1.1694    1.6746 C   0  0  0  0  0  0  0  0  0  0  0  0
    6.8257   -0.9313    3.1944 H   0  0  0  0  0  0  0  0  0  0  0  0
    7.3824   -1.6386    1.1883 H   0  0  0  0  0  0  0  0  0  0  0  0
    5.4448   -2.8270    2.1242 H   0  0  0  0  0  0  0  0  0  0  0  0
    5.2193   -2.6089    0.3556 H   0  0  0  0  0  0  0  0  0  0  0  0
    3.1485   -2.1220    1.4128 H   0  0  0  0  0  0  0  0  0  0  0  0
    3.8771   -1.1322    2.6744 H   0  0  0  0  0  0  0  0  0  0  0  0
    5.4833    1.2777   -1.9477 H   0  0  0  0  0  0  0  0  0  0  0  0
    3.2191    1.9774   -2.6510 H   0  0  0  0  0  0  0  0  0  0  0  0
    2.4367   -1.1950   -0.6602 H   0  0  0  0  0  0  0  0  0  0  0  0
    1.0433    0.4226    1.5686 H   0  0  0  0  0  0  0  0  0  0  0  0
    1.0574   -1.3281    1.3075 H   0  0  0  0  0  0  0  0  0  0  0  0
   -1.0968   -0.2179    0.7363 H   0  0  0  0  0  0  0  0  0  0  0  0
   -0.4020   -1.1522   -0.6232 H   0  0  0  0  0  0  0  0  0  0  0  0
    0.7681   -0.0751   -2.4144 H   0  0  0  0  0  0  0  0  0  0  0  0
    0.9523    2.9561   -2.6118 H   0  0  0  0  0  0  0  0  0  0  0  0
    1.0507    1.6943   -3.9138 H   0  0  0  0  0  0  0  0  0  0  0  0
   -1.3016    3.0297   -3.0460 H   0  0  0  0  0  0  0  0  0  0  0  0
   -1.2733    1.5267   -4.0226 H   0  0  0  0  0  0  0  0  0  0  0  0
   -1.6233    0.1117   -2.2955 H   0  0  0  0  0  0  0  0  0  0  0  0
   -3.6067    1.3934   -2.2359 H   0  0  0  0  0  0  0  0  0  0  0  0
   -3.4796    0.9454    0.7364 H   0  0  0  0  0  0  0  0  0  0  0  0
   -3.6178   -1.0640   -1.5717 H   0  0  0  0  0  0  0  0  0  0  0  0
   -3.3829   -1.5027    1.3926 H   0  0  0  0  0  0  0  0  0  0  0  0
   -5.5830   -0.2802    1.3261 H   0  0  0  0  0  0  0  0  0  0  0  0
   -7.6078   -1.2814    0.4022 H   0  0  0  0  0  0  0  0  0  0  0  0
   -6.4097   -1.0648   -0.9167 H   0  0  0  0  0  0  0  0  0  0  0  0
   -6.7046   -2.7070   -0.2168 H   0  0  0  0  0  0  0  0  0  0  0  0
   -6.8103   -1.7705    2.7874 H   0  0  0  0  0  0  0  0  0  0  0  0
   -5.0531   -1.9397    3.1219 H   0  0  0  0  0  0  0  0  0  0  0  0
   -5.9286   -3.2145    2.1823 H   0  0  0  0  0  0  0  0  0  0  0  0
   -4.5261   -3.3340   -0.8100 H   0  0  0  0  0  0  0  0  0  0  0  0
   -2.8314   -3.2614   -0.2167 H   0  0  0  0  0  0  0  0  0  0  0  0
   -4.1224   -3.8269    0.8850 H   0  0  0  0  0  0  0  0  0  0  0  0
   -4.2335    3.1685   -0.8048 H   0  0  0  0  0  0  0  0  0  0  0  0
   -2.7750    3.7221   -1.6504 H   0  0  0  0  0  0  0  0  0  0  0  0
   -2.6919    3.1963    0.0748 H   0  0  0  0  0  0  0  0  0  0  0  0
    0.8657    2.4335    0.3973 H   0  0  0  0  0  0  0  0  0  0  0  0
   -0.3801    3.2326   -0.5825 H   0  0  0  0  0  0  0  0  0  0  0  0
   -0.8413    2.2525    0.8676 H   0  0  0  0  0  0  0  0  0  0  0  0
    6.8942    0.7742    0.2512 H   0  0  0  0  0  0  0  0  0  0  0  0
    6.7007   -0.6727   -0.7914 H   0  0  0  0  0  0  0  0  0  0  0  0
    4.5836    1.4194    2.0977 H   0  0  0  0  0  0  0  0  0  0  0  0
    2.9185    0.9834    2.5385 H   0  0  0  0  0  0  0  0  0  0  0  0
    3.2219    2.0652    1.1298 H   0  0  0  0  0  0  0  0  0  0  0  0
  1  2  1  0
  2  3  1  0
  3  4  1  0
  4  5  1  0
  5  6  1  0
  6  7  2  0
  7  8  1  0
  8  9  2  0
  9 10  1  0
 10 11  1  0
 11 12  1  0
 12 13  1  0
 13 14  1  0
 14 15  1  0
 15 16  1  0
 16 17  1  0
 17 18  1  0
 18 19  1  0
 19 20  2  0
 20 21  1  0
 21 22  1  0
 22 23  1  0
 22 24  1  0
 21 25  1  0
 18 26  1  0
 13 27  1  1
  6 28  1  0
  5 29  1  1
 28  2  1  0
 10  5  1  0
 17 13  1  0
 14  9  1  0
  1 30  1  0
  2 31  1  6
  3 32  1  0
  3 33  1  0
  4 34  1  0
  4 35  1  0
  7 36  1  0
  8 37  1  0
 10 38  1  6
 11 39  1  0
 11 40  1  0
 12 41  1  0
 12 42  1  0
 14 43  1  6
 15 44  1  0
 15 45  1  0
 16 46  1  0
 16 47  1  0
 17 48  1  6
 18 49  1  6
 19 50  1  0
 20 51  1  0
 21 52  1  1
 22 53  1  0
 23 54  1  0
 23 55  1  0
 23 56  1  0
 24 57  1  0
 24 58  1  0
 24 59  1  0
 25 60  1  0
 25 61  1  0
 25 62  1  0
 26 63  1  0
 26 64  1  0
 26 65  1  0
 27 66  1  0
 27 67  1  0
 27 68  1  0
 28 69  1  0
 28 70  1  0
 29 71  1  0
 29 72  1  0
 29 73  1  0
M  END
$$$$
