
     RDKit          3D

 33 33  0  0  0  0  0  0  0  0999 V2000
   -1.7230    3.4174   -0.9851 C   0  0  0  0  0  0  0  0  0  0  0  0
   -1.6851    2.0227   -0.6984 O   0  0  0  0  0  0  0  0  0  0  0  0
   -0.5293    1.2990   -0.3527 C   0  0  0  0  0  0  0  0  0  0  0  0
    0.7179    1.9341   -0.2640 C   0  0  0  0  0  0  0  0  0  0  0  0
    1.8704    1.2228    0.0786 C   0  0  0  0  0  0  0  0  0  0  0  0
    3.1847    1.9549    0.1594 C   0  0  0  0  0  0  0  0  0  0  0  0
    1.7860   -0.1603    0.3418 C   0  0  0  0  0  0  0  0  0  0  0  0
    0.5333   -0.8227    0.2577 C   0  0  0  0  0  0  0  0  0  0  0  0
   -0.6315   -0.0877   -0.0919 C   0  0  0  0  0  0  0  0  0  0  0  0
   -2.0003   -0.7719   -0.1917 C   0  0  0  0  0  0  0  0  0  0  0  0
   -2.0362   -1.8342   -1.2992 C   0  0  0  0  0  0  0  0  0  0  0  0
   -2.4620   -1.3408    1.1571 C   0  0  0  0  0  0  0  0  0  0  0  0
    0.3863   -2.2013    0.5091 O   0  0  0  0  0  0  0  0  0  0  0  0
    1.4044   -3.1274    0.8716 C   0  0  0  0  0  0  0  0  0  0  0  0
    2.9342   -0.8791    0.6853 O   0  0  0  0  0  0  0  0  0  0  0  0
   -1.3869    3.9988   -0.1008 H   0  0  0  0  0  0  0  0  0  0  0  0
   -1.0815    3.6449   -1.8625 H   0  0  0  0  0  0  0  0  0  0  0  0
   -2.7661    3.7089   -1.2245 H   0  0  0  0  0  0  0  0  0  0  0  0
    0.7992    2.9940   -0.4628 H   0  0  0  0  0  0  0  0  0  0  0  0
    3.5983    1.8734    1.1866 H   0  0  0  0  0  0  0  0  0  0  0  0
    3.9025    1.5209   -0.5680 H   0  0  0  0  0  0  0  0  0  0  0  0
    3.0737    3.0347   -0.0767 H   0  0  0  0  0  0  0  0  0  0  0  0
   -2.7761   -0.0303   -0.4752 H   0  0  0  0  0  0  0  0  0  0  0  0
   -3.0825   -2.1692   -1.4651 H   0  0  0  0  0  0  0  0  0  0  0  0
   -1.6566   -1.4046   -2.2509 H   0  0  0  0  0  0  0  0  0  0  0  0
   -1.4314   -2.7263   -1.0409 H   0  0  0  0  0  0  0  0  0  0  0  0
   -3.5251   -1.6564    1.0880 H   0  0  0  0  0  0  0  0  0  0  0  0
   -2.3841   -0.5617    1.9454 H   0  0  0  0  0  0  0  0  0  0  0  0
   -1.8656   -2.2233    1.4635 H   0  0  0  0  0  0  0  0  0  0  0  0
    1.8616   -2.8376    1.8409 H   0  0  0  0  0  0  0  0  0  0  0  0
    2.1688   -3.1935    0.0693 H   0  0  0  0  0  0  0  0  0  0  0  0
    0.9466   -4.1302    0.9937 H   0  0  0  0  0  0  0  0  0  0  0  0
    3.8552   -0.4680    0.7623 H   0  0  0  0  0  0  0  0  0  0  0  0
  1  2  1  0
  2  3  1  0
  3  4  2  0
  4  5  1  0
  5  6  1  0
  5  7  2  0
  7  8  1  0
  8  9  2  0
  9 10  1  0
 10 11  1  0
 10 12  1  0
  8 13  1  0
 13 14  1  0
  7 15  1  0
  9  3  1  0
  1 16  1  0
  1 17  1  0
  1 18  1  0
  4 19  1  0
  6 20  1  0
  6 21  1  0
  6 22  1  0
 10 23  1  0
 11 24  1  0
 11 25  1  0
 11 26  1  0
 12 27  1  0
 12 28  1  0
 12 29  1  0
 14 30  1  0
 14 31  1  0
 14 32  1  0
 15 33  1  0
M  END
$$$$
