
     RDKit          3D

 50 49  0  0  0  0  0  0  0  0999 V2000
    6.9242    2.2485    2.1551 C   0  0  0  0  0  0  0  0  0  0  0  0
    5.4628    1.8530    1.9657 C   0  0  0  0  0  0  0  0  0  0  0  0
    5.2655    1.0678    0.6639 C   0  0  0  0  0  0  0  0  0  0  0  0
    3.7960    0.6718    0.4776 C   0  0  0  0  0  0  0  0  0  0  0  0
    3.6004   -0.1189   -0.8250 C   0  0  0  0  0  0  0  0  0  0  0  0
    2.1218   -0.4233   -1.1141 C   0  0  0  0  0  0  0  0  0  0  0  0
    1.5486   -1.5084   -0.1858 C   0  0  0  0  0  0  0  0  0  0  0  0
    0.1010   -1.8980   -0.5565 C   0  0  0  0  0  0  0  0  0  0  0  0
   -0.9627   -1.2847    0.3737 C   0  0  0  0  0  0  0  0  0  0  0  0
   -1.1073    0.2450    0.2714 C   0  0  0  0  0  0  0  0  0  0  0  0
   -1.5297    0.7710   -1.1163 C   0  0  0  0  0  0  0  0  0  0  0  0
   -2.8443    0.1877   -1.6645 C   0  0  0  0  0  0  0  0  0  0  0  0
   -4.0536    0.4912   -0.7681 C   0  0  0  0  0  0  0  0  0  0  0  0
   -5.3596    0.0328   -1.4338 C   0  0  0  0  0  0  0  0  0  0  0  0
   -6.5915    0.3516   -0.5763 C   0  0  0  0  0  0  0  0  0  0  0  0
   -6.6314   -0.4795    0.6692 C   0  0  0  0  0  0  0  0  0  0  0  0
   -7.0183   -1.6777    0.6166 O   0  0  0  0  0  0  0  0  0  0  0  0
   -6.2090    0.0625    1.8790 O   0  0  0  0  0  0  0  0  0  0  0  0
    7.5657    1.3430    2.2053 H   0  0  0  0  0  0  0  0  0  0  0  0
    7.2620    2.8917    1.3146 H   0  0  0  0  0  0  0  0  0  0  0  0
    7.0359    2.8157    3.1031 H   0  0  0  0  0  0  0  0  0  0  0  0
    4.8408    2.7744    1.9454 H   0  0  0  0  0  0  0  0  0  0  0  0
    5.1436    1.2318    2.8309 H   0  0  0  0  0  0  0  0  0  0  0  0
    5.8933    0.1497    0.6888 H   0  0  0  0  0  0  0  0  0  0  0  0
    5.5901    1.6950   -0.1957 H   0  0  0  0  0  0  0  0  0  0  0  0
    3.1697    1.5907    0.4500 H   0  0  0  0  0  0  0  0  0  0  0  0
    3.4793    0.0530    1.3437 H   0  0  0  0  0  0  0  0  0  0  0  0
    4.1818   -1.0662   -0.7858 H   0  0  0  0  0  0  0  0  0  0  0  0
    3.9970    0.4836   -1.6716 H   0  0  0  0  0  0  0  0  0  0  0  0
    2.0459   -0.7783   -2.1652 H   0  0  0  0  0  0  0  0  0  0  0  0
    1.5323    0.5124   -1.0354 H   0  0  0  0  0  0  0  0  0  0  0  0
    2.1882   -2.4141   -0.2758 H   0  0  0  0  0  0  0  0  0  0  0  0
    1.5990   -1.1792    0.8732 H   0  0  0  0  0  0  0  0  0  0  0  0
    0.0122   -3.0025   -0.4615 H   0  0  0  0  0  0  0  0  0  0  0  0
   -0.1270   -1.6696   -1.6191 H   0  0  0  0  0  0  0  0  0  0  0  0
   -0.7122   -1.5441    1.4255 H   0  0  0  0  0  0  0  0  0  0  0  0
   -1.9425   -1.7647    0.1686 H   0  0  0  0  0  0  0  0  0  0  0  0
   -1.8481    0.5802    1.0278 H   0  0  0  0  0  0  0  0  0  0  0  0
   -0.1489    0.7238    0.5615 H   0  0  0  0  0  0  0  0  0  0  0  0
   -0.7233    0.5728   -1.8520 H   0  0  0  0  0  0  0  0  0  0  0  0
   -1.6295    1.8765   -1.0536 H   0  0  0  0  0  0  0  0  0  0  0  0
   -2.7458   -0.9081   -1.8155 H   0  0  0  0  0  0  0  0  0  0  0  0
   -3.0185    0.6376   -2.6666 H   0  0  0  0  0  0  0  0  0  0  0  0
   -3.9358   -0.0398    0.1997 H   0  0  0  0  0  0  0  0  0  0  0  0
   -4.1041    1.5848   -0.5721 H   0  0  0  0  0  0  0  0  0  0  0  0
   -5.4717    0.5556   -2.4089 H   0  0  0  0  0  0  0  0  0  0  0  0
   -5.3181   -1.0601   -1.6377 H   0  0  0  0  0  0  0  0  0  0  0  0
   -6.6008    1.4305   -0.3090 H   0  0  0  0  0  0  0  0  0  0  0  0
   -7.5077    0.1478   -1.1716 H   0  0  0  0  0  0  0  0  0  0  0  0
   -6.2160   -0.4915    2.7270 H   0  0  0  0  0  0  0  0  0  0  0  0
  1  2  1  0
  2  3  1  0
  3  4  1  0
  4  5  1  0
  5  6  1  0
  6  7  1  0
  7  8  1  0
  8  9  1  0
  9 10  1  0
 10 11  1  0
 11 12  1  0
 12 13  1  0
 13 14  1  0
 14 15  1  0
 15 16  1  0
 16 17  2  0
 16 18  1  0
  1 19  1  0
  1 20  1  0
  1 21  1  0
  2 22  1  0
  2 23  1  0
  3 24  1  0
  3 25  1  0
  4 26  1  0
  4 27  1  0
  5 28  1  0
  5 29  1  0
  6 30  1  0
  6 31  1  0
  7 32  1  0
  7 33  1  0
  8 34  1  0
  8 35  1  0
  9 36  1  0
  9 37  1  0
 10 38  1  0
 10 39  1  0
 11 40  1  0
 11 41  1  0
 12 42  1  0
 12 43  1  0
 13 44  1  0
 13 45  1  0
 14 46  1  0
 14 47  1  0
 15 48  1  0
 15 49  1  0
 18 50  1  0
M  END
$$$$
