
     RDKit          3D

 53 56  0  0  0  0  0  0  0  0999 V2000
   -0.7426   -4.4801    3.3715 O   0  0  0  0  0  0  0  0  0  0  0  0
   -1.0905   -3.4941    2.4512 C   0  0  0  0  0  0  0  0  0  0  0  0
   -0.9643   -2.1468    2.8020 C   0  0  0  0  0  0  0  0  0  0  0  0
   -1.3057   -1.1463    1.8874 C   0  0  0  0  0  0  0  0  0  0  0  0
   -1.7848   -1.4848    0.6087 C   0  0  0  0  0  0  0  0  0  0  0  0
   -1.8958   -2.8409    0.2578 C   0  0  0  0  0  0  0  0  0  0  0  0
   -1.5596   -3.8393    1.1769 C   0  0  0  0  0  0  0  0  0  0  0  0
   -2.1077   -0.4143   -0.4085 C   0  0  1  0  0  0  0  0  0  0  0  0
   -2.6800    0.7307    0.2325 O   0  0  0  0  0  0  0  0  0  0  0  0
   -2.7605    1.9825   -0.3935 C   0  0  0  0  0  0  0  0  0  0  0  0
   -3.5564    2.9775    0.1781 C   0  0  0  0  0  0  0  0  0  0  0  0
   -3.6642    4.2289   -0.4294 C   0  0  0  0  0  0  0  0  0  0  0  0
   -4.4787    5.2028    0.1441 O   0  0  0  0  0  0  0  0  0  0  0  0
   -2.9485    4.4972   -1.6020 C   0  0  0  0  0  0  0  0  0  0  0  0
   -2.1148    3.5264   -2.1704 C   0  0  0  0  0  0  0  0  0  0  0  0
   -2.0415    2.2379   -1.5810 C   0  0  0  0  0  0  0  0  0  0  0  0
   -1.2441    1.1158   -2.1328 C   0  0  0  0  0  0  0  0  0  0  0  0
   -0.9370    1.0594   -3.3530 O   0  0  0  0  0  0  0  0  0  0  0  0
   -0.8594   -0.0163   -1.2189 C   0  0  1  0  0  0  0  0  0  0  0  0
    0.1584    0.4218   -0.3337 O   0  0  0  0  0  0  0  0  0  0  0  0
    1.4475    0.2021   -0.8809 C   0  0  2  0  0  0  0  0  0  0  0  0
    1.7746   -1.1849   -0.8330 O   0  0  0  0  0  0  0  0  0  0  0  0
    2.2187   -1.5673    0.4558 C   0  0  1  0  0  0  0  0  0  0  0  0
    2.2225   -3.0928    0.5465 C   0  0  0  0  0  0  0  0  0  0  0  0
    3.6309   -0.9871    0.7348 C   0  0  1  0  0  0  0  0  0  0  0  0
    3.8313    0.3697    0.0086 C   0  0  2  0  0  0  0  0  0  0  0  0
    2.4792    1.0941   -0.1291 C   0  0  1  0  0  0  0  0  0  0  0  0
    2.6236    2.3515   -0.7439 O   0  0  0  0  0  0  0  0  0  0  0  0
    4.3813    0.1519   -1.2671 O   0  0  0  0  0  0  0  0  0  0  0  0
    3.7859   -0.8181    2.1211 O   0  0  0  0  0  0  0  0  0  0  0  0
   -1.3602    3.8977   -3.2855 O   0  0  0  0  0  0  0  0  0  0  0  0
   -0.8195   -5.4650    3.1462 H   0  0  0  0  0  0  0  0  0  0  0  0
   -0.5940   -1.8746    3.7822 H   0  0  0  0  0  0  0  0  0  0  0  0
   -1.1840   -0.1090    2.1736 H   0  0  0  0  0  0  0  0  0  0  0  0
   -2.2398   -3.1255   -0.7288 H   0  0  0  0  0  0  0  0  0  0  0  0
   -1.6529   -4.8800    0.8939 H   0  0  0  0  0  0  0  0  0  0  0  0
   -2.8689   -0.8123   -1.1176 H   0  0  0  0  0  0  0  0  0  0  0  0
   -4.1027    2.7721    1.0902 H   0  0  0  0  0  0  0  0  0  0  0  0
   -4.5749    6.1234   -0.2686 H   0  0  0  0  0  0  0  0  0  0  0  0
   -3.0158    5.4767   -2.0594 H   0  0  0  0  0  0  0  0  0  0  0  0
   -0.5529   -0.9061   -1.8210 H   0  0  0  0  0  0  0  0  0  0  0  0
    1.4724    0.5027   -1.9539 H   0  0  0  0  0  0  0  0  0  0  0  0
    1.5041   -1.2031    1.2310 H   0  0  0  0  0  0  0  0  0  0  0  0
    2.9121   -3.5276   -0.2084 H   0  0  0  0  0  0  0  0  0  0  0  0
    1.2016   -3.4820    0.3532 H   0  0  0  0  0  0  0  0  0  0  0  0
    2.5380   -3.4164    1.5610 H   0  0  0  0  0  0  0  0  0  0  0  0
    4.4044   -1.7031    0.3658 H   0  0  0  0  0  0  0  0  0  0  0  0
    4.5182    1.0211    0.5994 H   0  0  0  0  0  0  0  0  0  0  0  0
    2.1022    1.2779    0.9023 H   0  0  0  0  0  0  0  0  0  0  0  0
    2.9802    2.2074   -1.6590 H   0  0  0  0  0  0  0  0  0  0  0  0
    5.3495   -0.0250   -1.1362 H   0  0  0  0  0  0  0  0  0  0  0  0
    4.7602   -0.7384    2.2950 H   0  0  0  0  0  0  0  0  0  0  0  0
   -0.5955    3.3515   -3.6551 H   0  0  0  0  0  0  0  0  0  0  0  0
  1  2  1  0
  2  3  2  0
  3  4  1  0
  4  5  2  0
  5  6  1  0
  6  7  2  0
  5  8  1  0
  8  9  1  0
  9 10  1  0
 10 11  2  0
 11 12  1  0
 12 13  1  0
 12 14  2  0
 14 15  1  0
 15 16  2  0
 16 17  1  0
 17 18  2  0
 17 19  1  0
 19 20  1  0
 20 21  1  0
 21 22  1  0
 22 23  1  0
 23 24  1  0
 23 25  1  0
 25 26  1  0
 26 27  1  0
 27 28  1  0
 26 29  1  0
 25 30  1  0
 15 31  1  0
  7  2  1  0
 19  8  1  0
 27 21  1  0
 16 10  1  0
  1 32  1  0
  3 33  1  0
  4 34  1  0
  6 35  1  0
  7 36  1  0
  8 37  1  6
 11 38  1  0
 13 39  1  0
 14 40  1  0
 19 41  1  6
 21 42  1  6
 23 43  1  1
 24 44  1  0
 24 45  1  0
 24 46  1  0
 25 47  1  6
 26 48  1  1
 27 49  1  1
 28 50  1  0
 29 51  1  0
 30 52  1  0
 31 53  1  0
M  END
$$$$
