
     RDKit          3D

 39 40  0  0  0  0  0  0  0  0999 V2000
    3.5706   -1.7948    0.5938 C   0  0  0  0  0  0  0  0  0  0  0  0
    2.5373   -0.6918    0.5386 C   0  0  0  0  0  0  0  0  0  0  0  0
    2.7930    0.3353   -0.3215 C   0  0  0  0  0  0  0  0  0  0  0  0
    1.9300    1.5014   -0.7849 C   0  0  0  0  0  0  0  0  0  0  0  0
    1.1307    2.2862    0.2691 C   0  0  0  0  0  0  0  0  0  0  0  0
   -0.3812    2.1426    0.1024 C   0  0  0  0  0  0  0  0  0  0  0  0
   -1.0871    3.2420   -0.2300 C   0  0  0  0  0  0  0  0  0  0  0  0
   -1.0959    0.8776    0.5837 C   0  0  2  0  0  0  0  0  0  0  0  0
   -0.6045   -0.4420   -0.0432 C   0  0  1  0  0  0  0  0  0  0  0  0
    0.0946   -1.3905    0.9427 C   0  0  0  0  0  0  0  0  0  0  0  0
    1.3779   -0.7857    1.5219 C   0  0  0  0  0  0  0  0  0  0  0  0
   -2.0509   -0.7807   -0.4780 C   0  0  0  0  0  0  0  0  0  0  0  0
   -2.5059    0.5968    0.0257 C   0  0  0  0  0  0  0  0  0  0  0  0
   -2.1948   -0.9384   -2.0039 C   0  0  0  0  0  0  0  0  0  0  0  0
   -2.7472   -1.9370    0.2693 C   0  0  0  0  0  0  0  0  0  0  0  0
    4.5437   -1.3836    0.9371 H   0  0  0  0  0  0  0  0  0  0  0  0
    3.6999   -2.2384   -0.4165 H   0  0  0  0  0  0  0  0  0  0  0  0
    3.2742   -2.6136    1.2823 H   0  0  0  0  0  0  0  0  0  0  0  0
    3.7264    0.2699   -0.8782 H   0  0  0  0  0  0  0  0  0  0  0  0
    1.3030    1.2039   -1.6481 H   0  0  0  0  0  0  0  0  0  0  0  0
    2.6374    2.2248   -1.2488 H   0  0  0  0  0  0  0  0  0  0  0  0
    1.4523    2.0724    1.3011 H   0  0  0  0  0  0  0  0  0  0  0  0
    1.4115    3.3583    0.1588 H   0  0  0  0  0  0  0  0  0  0  0  0
   -0.5915    4.1691   -0.5013 H   0  0  0  0  0  0  0  0  0  0  0  0
   -2.1697    3.2658   -0.2055 H   0  0  0  0  0  0  0  0  0  0  0  0
   -1.1148    0.8416    1.6959 H   0  0  0  0  0  0  0  0  0  0  0  0
    0.0231   -0.3141   -0.9395 H   0  0  0  0  0  0  0  0  0  0  0  0
    0.3305   -2.3479    0.4295 H   0  0  0  0  0  0  0  0  0  0  0  0
   -0.5717   -1.6184    1.8003 H   0  0  0  0  0  0  0  0  0  0  0  0
    1.6833   -1.4525    2.3572 H   0  0  0  0  0  0  0  0  0  0  0  0
    1.1781    0.1598    2.0445 H   0  0  0  0  0  0  0  0  0  0  0  0
   -2.8164    1.2558   -0.8125 H   0  0  0  0  0  0  0  0  0  0  0  0
   -3.2732    0.5571    0.8302 H   0  0  0  0  0  0  0  0  0  0  0  0
   -3.2686   -0.9793   -2.2857 H   0  0  0  0  0  0  0  0  0  0  0  0
   -1.7267   -0.0863   -2.5432 H   0  0  0  0  0  0  0  0  0  0  0  0
   -1.7014   -1.8771   -2.3345 H   0  0  0  0  0  0  0  0  0  0  0  0
   -2.2224   -2.8947    0.0671 H   0  0  0  0  0  0  0  0  0  0  0  0
   -2.7755   -1.7608    1.3652 H   0  0  0  0  0  0  0  0  0  0  0  0
   -3.7982   -2.0329   -0.0771 H   0  0  0  0  0  0  0  0  0  0  0  0
  1  2  1  0
  2  3  2  0
  3  4  1  0
  4  5  1  0
  5  6  1  0
  6  7  2  3
  6  8  1  0
  8  9  1  0
  9 10  1  0
 10 11  1  0
  9 12  1  0
 12 13  1  0
 12 14  1  0
 12 15  1  0
 11  2  1  0
 13  8  1  0
  1 16  1  0
  1 17  1  0
  1 18  1  0
  3 19  1  0
  4 20  1  0
  4 21  1  0
  5 22  1  0
  5 23  1  0
  7 24  1  0
  7 25  1  0
  8 26  1  1
  9 27  1  6
 10 28  1  0
 10 29  1  0
 11 30  1  0
 11 31  1  0
 13 32  1  0
 13 33  1  0
 14 34  1  0
 14 35  1  0
 14 36  1  0
 15 37  1  0
 15 38  1  0
 15 39  1  0
M  END
$$$$
