
     RDKit          3D

 64 66  0  0  0  0  0  0  0  0999 V2000
    6.7518   -1.1988   -1.4810 C   0  0  0  0  0  0  0  0  0  0  0  0
    6.0521   -0.8071   -0.3036 O   0  0  0  0  0  0  0  0  0  0  0  0
    4.7972   -0.1767   -0.2892 C   0  0  0  0  0  0  0  0  0  0  0  0
    4.1149    0.1233   -1.4815 C   0  0  0  0  0  0  0  0  0  0  0  0
    2.8369    0.6896   -1.4555 C   0  0  0  0  0  0  0  0  0  0  0  0
    2.1954    0.9999   -2.6577 O   0  0  0  0  0  0  0  0  0  0  0  0
    2.2054    0.9499   -0.2245 C   0  0  0  0  0  0  0  0  0  0  0  0
    2.8906    0.6615    0.9795 C   0  0  0  0  0  0  0  0  0  0  0  0
    4.1867    0.1232    0.9460 C   0  0  0  0  0  0  0  0  0  0  0  0
    4.8241   -0.1249    2.1720 O   0  0  0  0  0  0  0  0  0  0  0  0
    6.1820    0.2131    2.4466 C   0  0  0  0  0  0  0  0  0  0  0  0
    2.3152    0.8990    2.2322 O   0  0  0  0  0  0  0  0  0  0  0  0
    0.8374    1.5167   -0.2085 C   0  0  0  0  0  0  0  0  0  0  0  0
    0.6132    2.5784    0.4390 O   0  0  0  0  0  0  0  0  0  0  0  0
   -0.3114    0.7869   -0.8767 C   0  0  2  0  0  0  0  0  0  0  0  0
   -1.2550    1.7747   -1.5752 C   0  0  0  0  0  0  0  0  0  0  0  0
   -2.2956    1.0062   -2.3324 C   0  0  0  0  0  0  0  0  0  0  0  0
   -2.8231   -0.1292   -1.8366 C   0  0  0  0  0  0  0  0  0  0  0  0
   -2.4514   -0.6472   -0.4437 C   0  0  1  0  0  0  0  0  0  0  0  0
   -1.1185   -0.0531    0.1503 C   0  0  1  0  0  0  0  0  0  0  0  0
   -0.2610   -1.1450    0.7777 C   0  0  0  0  0  0  0  0  0  0  0  0
    0.4068   -2.0958   -0.0201 C   0  0  0  0  0  0  0  0  0  0  0  0
    1.2392   -3.0509    0.5682 C   0  0  0  0  0  0  0  0  0  0  0  0
    1.3891   -3.0926    1.9559 C   0  0  0  0  0  0  0  0  0  0  0  0
    0.7026   -2.1797    2.7598 C   0  0  0  0  0  0  0  0  0  0  0  0
   -0.1219   -1.2142    2.1774 C   0  0  0  0  0  0  0  0  0  0  0  0
   -3.6430   -0.4823    0.5369 C   0  0  0  0  0  0  0  0  0  0  0  0
   -4.0823    0.9630    0.6839 C   0  0  0  0  0  0  0  0  0  0  0  0
   -5.2777    1.4628    0.2881 C   0  0  0  0  0  0  0  0  0  0  0  0
   -5.5533    2.9413    0.4254 C   0  0  0  0  0  0  0  0  0  0  0  0
   -6.3724    0.5924   -0.2768 C   0  0  0  0  0  0  0  0  0  0  0  0
   -3.7364   -0.9402   -2.7176 C   0  0  0  0  0  0  0  0  0  0  0  0
    7.6791   -1.7303   -1.1894 H   0  0  0  0  0  0  0  0  0  0  0  0
    6.1267   -1.8874   -2.0861 H   0  0  0  0  0  0  0  0  0  0  0  0
    7.0227   -0.3034   -2.0789 H   0  0  0  0  0  0  0  0  0  0  0  0
    4.5710   -0.0801   -2.4401 H   0  0  0  0  0  0  0  0  0  0  0  0
    2.6345    0.8312   -3.5541 H   0  0  0  0  0  0  0  0  0  0  0  0
    6.3615    0.1155    3.5384 H   0  0  0  0  0  0  0  0  0  0  0  0
    6.8846   -0.4691    1.9228 H   0  0  0  0  0  0  0  0  0  0  0  0
    6.3748    1.2697    2.1472 H   0  0  0  0  0  0  0  0  0  0  0  0
    1.3710    1.2366    2.3564 H   0  0  0  0  0  0  0  0  0  0  0  0
    0.0928    0.1095   -1.6583 H   0  0  0  0  0  0  0  0  0  0  0  0
   -1.7574    2.4293   -0.8278 H   0  0  0  0  0  0  0  0  0  0  0  0
   -0.6863    2.4162   -2.2844 H   0  0  0  0  0  0  0  0  0  0  0  0
   -2.5467    1.3280   -3.3394 H   0  0  0  0  0  0  0  0  0  0  0  0
   -2.3048   -1.7436   -0.5697 H   0  0  0  0  0  0  0  0  0  0  0  0
   -1.3827    0.6588    0.9607 H   0  0  0  0  0  0  0  0  0  0  0  0
    0.2952   -2.0979   -1.0970 H   0  0  0  0  0  0  0  0  0  0  0  0
    1.7650   -3.7661   -0.0527 H   0  0  0  0  0  0  0  0  0  0  0  0
    2.0299   -3.8394    2.4067 H   0  0  0  0  0  0  0  0  0  0  0  0
    0.8108   -2.2138    3.8367 H   0  0  0  0  0  0  0  0  0  0  0  0
   -0.6348   -0.5096    2.8206 H   0  0  0  0  0  0  0  0  0  0  0  0
   -4.4798   -1.1334    0.2056 H   0  0  0  0  0  0  0  0  0  0  0  0
   -3.3435   -0.8556    1.5390 H   0  0  0  0  0  0  0  0  0  0  0  0
   -3.3574    1.6487    1.1129 H   0  0  0  0  0  0  0  0  0  0  0  0
   -5.7704    3.3708   -0.5787 H   0  0  0  0  0  0  0  0  0  0  0  0
   -4.6899    3.4927    0.8587 H   0  0  0  0  0  0  0  0  0  0  0  0
   -6.4369    3.0950    1.0844 H   0  0  0  0  0  0  0  0  0  0  0  0
   -6.0204    0.0827   -1.1953 H   0  0  0  0  0  0  0  0  0  0  0  0
   -6.6823   -0.1637    0.4767 H   0  0  0  0  0  0  0  0  0  0  0  0
   -7.2653    1.2008   -0.5400 H   0  0  0  0  0  0  0  0  0  0  0  0
   -4.1312   -1.8272   -2.1790 H   0  0  0  0  0  0  0  0  0  0  0  0
   -4.5918   -0.3179   -3.0581 H   0  0  0  0  0  0  0  0  0  0  0  0
   -3.1758   -1.2908   -3.6099 H   0  0  0  0  0  0  0  0  0  0  0  0
  1  2  1  0
  2  3  1  0
  3  4  2  0
  4  5  1  0
  5  6  1  0
  5  7  2  0
  7  8  1  0
  8  9  2  0
  9 10  1  0
 10 11  1  0
  8 12  1  0
  7 13  1  0
 13 14  2  0
 13 15  1  0
 15 16  1  0
 16 17  1  0
 17 18  2  0
 18 19  1  0
 19 20  1  0
 20 21  1  0
 21 22  2  0
 22 23  1  0
 23 24  2  0
 24 25  1  0
 25 26  2  0
 19 27  1  0
 27 28  1  0
 28 29  2  3
 29 30  1  0
 29 31  1  0
 18 32  1  0
  9  3  1  0
 20 15  1  0
 26 21  1  0
  1 33  1  0
  1 34  1  0
  1 35  1  0
  4 36  1  0
  6 37  1  0
 11 38  1  0
 11 39  1  0
 11 40  1  0
 12 41  1  0
 15 42  1  6
 16 43  1  0
 16 44  1  0
 17 45  1  0
 19 46  1  6
 20 47  1  1
 22 48  1  0
 23 49  1  0
 24 50  1  0
 25 51  1  0
 26 52  1  0
 27 53  1  0
 27 54  1  0
 28 55  1  0
 30 56  1  0
 30 57  1  0
 30 58  1  0
 31 59  1  0
 31 60  1  0
 31 61  1  0
 32 62  1  0
 32 63  1  0
 32 64  1  0
M  END
$$$$
