
     RDKit          3D

 78 82  0  0  0  0  0  0  0  0999 V2000
   -4.0430    2.3260    3.0286 C   0  0  0  0  0  0  0  0  0  0  0  0
   -3.3587    1.8745    1.8656 O   0  0  0  0  0  0  0  0  0  0  0  0
   -2.1179    1.2321    1.9402 C   0  0  0  0  0  0  0  0  0  0  0  0
   -0.9517    1.9362    1.5767 C   0  0  0  0  0  0  0  0  0  0  0  0
   -1.1030    3.3344    0.9977 C   0  0  0  0  0  0  0  0  0  0  0  0
   -1.4340    3.2590   -0.4804 C   0  0  0  0  0  0  0  0  0  0  0  0
   -0.4179    2.8368   -1.3614 C   0  0  0  0  0  0  0  0  0  0  0  0
   -0.6724    2.6668   -2.7224 C   0  0  0  0  0  0  0  0  0  0  0  0
   -1.9446    2.9163   -3.2305 C   0  0  0  0  0  0  0  0  0  0  0  0
   -2.9626    3.3477   -2.3805 C   0  0  0  0  0  0  0  0  0  0  0  0
   -2.7255    3.5329   -1.0123 C   0  0  0  0  0  0  0  0  0  0  0  0
   -3.7949    3.9942   -0.2403 O   0  0  0  0  0  0  0  0  0  0  0  0
    0.3070    1.2864    1.6745 C   0  0  0  0  0  0  0  0  0  0  0  0
    1.5103    1.9511    1.4112 O   0  0  0  0  0  0  0  0  0  0  0  0
    0.3767   -0.0724    2.0539 C   0  0  0  0  0  0  0  0  0  0  0  0
   -0.7962   -0.7556    2.4353 C   0  0  0  0  0  0  0  0  0  0  0  0
   -2.0446   -0.1067    2.3664 C   0  0  0  0  0  0  0  0  0  0  0  0
   -3.2871   -0.8451    2.6687 C   0  0  0  0  0  0  0  0  0  0  0  0
   -3.4981   -1.2609    3.8395 O   0  0  0  0  0  0  0  0  0  0  0  0
   -4.2657   -1.1681    1.5774 C   0  0  0  0  0  0  0  0  0  0  0  0
   -3.8611   -2.4617    0.8663 C   0  0  0  0  0  0  0  0  0  0  0  0
   -4.7949   -2.7489   -0.2780 C   0  0  0  0  0  0  0  0  0  0  0  0
   -4.5123   -2.2569   -1.5638 C   0  0  0  0  0  0  0  0  0  0  0  0
   -5.3984   -2.4949   -2.6192 C   0  0  0  0  0  0  0  0  0  0  0  0
   -6.5757   -3.2148   -2.3965 C   0  0  0  0  0  0  0  0  0  0  0  0
   -6.8703   -3.6952   -1.1172 C   0  0  0  0  0  0  0  0  0  0  0  0
   -5.9867   -3.4600   -0.0590 C   0  0  0  0  0  0  0  0  0  0  0  0
   -0.7011   -2.0852    2.8635 O   0  0  0  0  0  0  0  0  0  0  0  0
    1.7205   -0.7872    2.0727 C   0  0  0  0  0  0  0  0  0  0  0  0
    2.4095   -0.7539    0.7216 C   0  0  0  0  0  0  0  0  0  0  0  0
    3.5787    0.0169    0.5734 C   0  0  0  0  0  0  0  0  0  0  0  0
    4.2267    0.1181   -0.6665 C   0  0  0  0  0  0  0  0  0  0  0  0
    3.7099   -0.5777   -1.7675 C   0  0  0  0  0  0  0  0  0  0  0  0
    2.5616   -1.3574   -1.6325 C   0  0  0  0  0  0  0  0  0  0  0  0
    1.9101   -1.4620   -0.3995 C   0  0  0  0  0  0  0  0  0  0  0  0
    0.7826   -2.2808   -0.3268 O   0  0  0  0  0  0  0  0  0  0  0  0
    5.4877    0.9313   -0.8102 C   0  0  0  0  0  0  0  0  0  0  0  0
    6.7068    0.0689   -0.5708 C   0  0  0  0  0  0  0  0  0  0  0  0
    7.2141   -0.6781   -1.6513 C   0  0  0  0  0  0  0  0  0  0  0  0
    8.3108   -1.5250   -1.4821 C   0  0  0  0  0  0  0  0  0  0  0  0
    8.9140   -1.6451   -0.2315 C   0  0  0  0  0  0  0  0  0  0  0  0
    8.4226   -0.9179    0.8532 C   0  0  0  0  0  0  0  0  0  0  0  0
    7.3244   -0.0616    0.7019 C   0  0  0  0  0  0  0  0  0  0  0  0
    6.8902    0.6344    1.8324 O   0  0  0  0  0  0  0  0  0  0  0  0
   -4.2803    1.4764    3.7004 H   0  0  0  0  0  0  0  0  0  0  0  0
   -3.4165    3.0635    3.5725 H   0  0  0  0  0  0  0  0  0  0  0  0
   -4.9908    2.8145    2.7243 H   0  0  0  0  0  0  0  0  0  0  0  0
   -0.2019    3.9569    1.1358 H   0  0  0  0  0  0  0  0  0  0  0  0
   -1.8545    3.8934    1.5805 H   0  0  0  0  0  0  0  0  0  0  0  0
    0.5759    2.6232   -0.9936 H   0  0  0  0  0  0  0  0  0  0  0  0
    0.1178    2.3334   -3.3829 H   0  0  0  0  0  0  0  0  0  0  0  0
   -2.1422    2.7793   -4.2857 H   0  0  0  0  0  0  0  0  0  0  0  0
   -3.9454    3.5478   -2.7889 H   0  0  0  0  0  0  0  0  0  0  0  0
   -3.7342    4.2527    0.7326 H   0  0  0  0  0  0  0  0  0  0  0  0
    1.6023    2.9265    1.1725 H   0  0  0  0  0  0  0  0  0  0  0  0
   -5.2824   -1.2805    2.0141 H   0  0  0  0  0  0  0  0  0  0  0  0
   -4.3005   -0.3354    0.8421 H   0  0  0  0  0  0  0  0  0  0  0  0
   -2.8193   -2.3718    0.4855 H   0  0  0  0  0  0  0  0  0  0  0  0
   -3.8777   -3.3073    1.5889 H   0  0  0  0  0  0  0  0  0  0  0  0
   -3.6085   -1.6886   -1.7470 H   0  0  0  0  0  0  0  0  0  0  0  0
   -5.1742   -2.1184   -3.6092 H   0  0  0  0  0  0  0  0  0  0  0  0
   -7.2617   -3.3957   -3.2142 H   0  0  0  0  0  0  0  0  0  0  0  0
   -7.7857   -4.2465   -0.9445 H   0  0  0  0  0  0  0  0  0  0  0  0
   -6.2311   -3.8288    0.9297 H   0  0  0  0  0  0  0  0  0  0  0  0
   -1.4995   -2.6543    3.1113 H   0  0  0  0  0  0  0  0  0  0  0  0
    1.6341   -1.8470    2.3890 H   0  0  0  0  0  0  0  0  0  0  0  0
    2.3524   -0.3038    2.8490 H   0  0  0  0  0  0  0  0  0  0  0  0
    3.9723    0.5571    1.4237 H   0  0  0  0  0  0  0  0  0  0  0  0
    4.1982   -0.5195   -2.7324 H   0  0  0  0  0  0  0  0  0  0  0  0
    2.1793   -1.8941   -2.4920 H   0  0  0  0  0  0  0  0  0  0  0  0
    0.2928   -2.4733    0.5340 H   0  0  0  0  0  0  0  0  0  0  0  0
    5.4647    1.8169   -0.1450 H   0  0  0  0  0  0  0  0  0  0  0  0
    5.5344    1.3594   -1.8362 H   0  0  0  0  0  0  0  0  0  0  0  0
    6.7567   -0.6066   -2.6305 H   0  0  0  0  0  0  0  0  0  0  0  0
    8.6907   -2.0926   -2.3220 H   0  0  0  0  0  0  0  0  0  0  0  0
    9.7632   -2.3036   -0.1013 H   0  0  0  0  0  0  0  0  0  0  0  0
    8.8984   -1.0194    1.8206 H   0  0  0  0  0  0  0  0  0  0  0  0
    6.1276    1.2951    1.8333 H   0  0  0  0  0  0  0  0  0  0  0  0
  1  2  1  0
  2  3  1  0
  3  4  2  0
  4  5  1  0
  5  6  1  0
  6  7  2  0
  7  8  1  0
  8  9  2  0
  9 10  1  0
 10 11  2  0
 11 12  1  0
  4 13  1  0
 13 14  1  0
 13 15  2  0
 15 16  1  0
 16 17  2  0
 17 18  1  0
 18 19  2  0
 18 20  1  0
 20 21  1  0
 21 22  1  0
 22 23  2  0
 23 24  1  0
 24 25  2  0
 25 26  1  0
 26 27  2  0
 16 28  1  0
 15 29  1  0
 29 30  1  0
 30 31  2  0
 31 32  1  0
 32 33  2  0
 33 34  1  0
 34 35  2  0
 35 36  1  0
 32 37  1  0
 37 38  1  0
 38 39  2  0
 39 40  1  0
 40 41  2  0
 41 42  1  0
 42 43  2  0
 43 44  1  0
 17  3  1  0
 27 22  1  0
 35 30  1  0
 43 38  1  0
 11  6  1  0
  1 45  1  0
  1 46  1  0
  1 47  1  0
  5 48  1  0
  5 49  1  0
  7 50  1  0
  8 51  1  0
  9 52  1  0
 10 53  1  0
 12 54  1  0
 14 55  1  0
 20 56  1  0
 20 57  1  0
 21 58  1  0
 21 59  1  0
 23 60  1  0
 24 61  1  0
 25 62  1  0
 26 63  1  0
 27 64  1  0
 28 65  1  0
 29 66  1  0
 29 67  1  0
 31 68  1  0
 33 69  1  0
 34 70  1  0
 36 71  1  0
 37 72  1  0
 37 73  1  0
 39 74  1  0
 40 75  1  0
 41 76  1  0
 42 77  1  0
 44 78  1  0
M  END
$$$$
