
     RDKit          3D

 50 52  0  0  0  0  0  0  0  0999 V2000
    7.1814   -0.8005    0.6518 C   0  0  0  0  0  0  0  0  0  0  0  0
    6.2797    0.2960    0.5414 O   0  0  0  0  0  0  0  0  0  0  0  0
    4.9164    0.1742    0.2305 C   0  0  0  0  0  0  0  0  0  0  0  0
    4.3090   -1.0742   -0.0053 C   0  0  0  0  0  0  0  0  0  0  0  0
    2.9480   -1.1509   -0.3109 C   0  0  0  0  0  0  0  0  0  0  0  0
    2.1727    0.0151   -0.3912 C   0  0  0  0  0  0  0  0  0  0  0  0
    2.7746    1.2590   -0.1506 C   0  0  0  0  0  0  0  0  0  0  0  0
    4.1400    1.3398    0.1565 C   0  0  0  0  0  0  0  0  0  0  0  0
    4.7339    2.5784    0.3931 O   0  0  0  0  0  0  0  0  0  0  0  0
    0.6964   -0.0684   -0.6787 C   0  0  0  0  0  0  0  0  0  0  0  0
   -0.1525    0.0003    0.6086 C   0  0  0  0  0  0  0  0  0  0  0  0
    0.1760   -1.1799    1.4710 N   0  0  0  0  0  0  0  0  0  0  0  0
    0.9817   -0.7893    2.6419 C   0  0  0  0  0  0  0  0  0  0  0  0
   -0.9726   -1.9957    1.9166 C   0  0  0  0  0  0  0  0  0  0  0  0
   -1.8920   -2.3239    0.7464 C   0  0  0  0  0  0  0  0  0  0  0  0
   -2.4397   -1.0419    0.2085 C   0  0  0  0  0  0  0  0  0  0  0  0
   -1.6194    0.0954    0.2013 C   0  0  0  0  0  0  0  0  0  0  0  0
   -2.1390    1.3137   -0.2647 C   0  0  0  0  0  0  0  0  0  0  0  0
   -3.4652    1.4007   -0.7293 C   0  0  0  0  0  0  0  0  0  0  0  0
   -4.0119    2.6052   -1.2001 O   0  0  0  0  0  0  0  0  0  0  0  0
   -3.3094    3.8425   -1.2585 C   0  0  0  0  0  0  0  0  0  0  0  0
   -4.2754    0.2557   -0.7337 C   0  0  0  0  0  0  0  0  0  0  0  0
   -3.7557   -0.9657   -0.2662 C   0  0  0  0  0  0  0  0  0  0  0  0
   -5.5912    0.3724   -1.2095 O   0  0  0  0  0  0  0  0  0  0  0  0
   -6.5251   -0.7007   -1.2729 C   0  0  0  0  0  0  0  0  0  0  0  0
    6.8498   -1.4878    1.4585 H   0  0  0  0  0  0  0  0  0  0  0  0
    8.1904   -0.4159    0.9055 H   0  0  0  0  0  0  0  0  0  0  0  0
    7.2410   -1.3447   -0.3144 H   0  0  0  0  0  0  0  0  0  0  0  0
    4.8788   -1.9916    0.0491 H   0  0  0  0  0  0  0  0  0  0  0  0
    2.4965   -2.1213   -0.4766 H   0  0  0  0  0  0  0  0  0  0  0  0
    2.1810    2.1641   -0.1960 H   0  0  0  0  0  0  0  0  0  0  0  0
    4.2013    3.4394    0.3489 H   0  0  0  0  0  0  0  0  0  0  0  0
    0.4662   -1.0107   -1.2241 H   0  0  0  0  0  0  0  0  0  0  0  0
    0.4240    0.7681   -1.3599 H   0  0  0  0  0  0  0  0  0  0  0  0
    0.0957    0.9528    1.1343 H   0  0  0  0  0  0  0  0  0  0  0  0
    1.3163   -1.6921    3.1970 H   0  0  0  0  0  0  0  0  0  0  0  0
    1.8953   -0.2447    2.3261 H   0  0  0  0  0  0  0  0  0  0  0  0
    0.3965   -0.1362    3.3265 H   0  0  0  0  0  0  0  0  0  0  0  0
   -1.5535   -1.4645    2.7062 H   0  0  0  0  0  0  0  0  0  0  0  0
   -0.6018   -2.9527    2.3451 H   0  0  0  0  0  0  0  0  0  0  0  0
   -2.7111   -2.9861    1.1028 H   0  0  0  0  0  0  0  0  0  0  0  0
   -1.3247   -2.8514   -0.0505 H   0  0  0  0  0  0  0  0  0  0  0  0
   -1.4979    2.1851   -0.2748 H   0  0  0  0  0  0  0  0  0  0  0  0
   -2.4268    3.7494   -1.9260 H   0  0  0  0  0  0  0  0  0  0  0  0
   -3.9832    4.6227   -1.6679 H   0  0  0  0  0  0  0  0  0  0  0  0
   -2.9891    4.1483   -0.2401 H   0  0  0  0  0  0  0  0  0  0  0  0
   -4.3692   -1.8567   -0.2592 H   0  0  0  0  0  0  0  0  0  0  0  0
   -7.4819   -0.3242   -1.6889 H   0  0  0  0  0  0  0  0  0  0  0  0
   -6.7141   -1.1032   -0.2553 H   0  0  0  0  0  0  0  0  0  0  0  0
   -6.1402   -1.5032   -1.9371 H   0  0  0  0  0  0  0  0  0  0  0  0
  1  2  1  0
  2  3  1  0
  3  4  2  0
  4  5  1  0
  5  6  2  0
  6  7  1  0
  7  8  2  0
  8  9  1  0
  6 10  1  0
 10 11  1  0
 11 12  1  0
 12 13  1  0
 12 14  1  0
 14 15  1  0
 15 16  1  0
 16 17  2  0
 17 18  1  0
 18 19  2  0
 19 20  1  0
 20 21  1  0
 19 22  1  0
 22 23  2  0
 22 24  1  0
 24 25  1  0
  8  3  1  0
 17 11  1  0
 23 16  1  0
  1 26  1  0
  1 27  1  0
  1 28  1  0
  4 29  1  0
  5 30  1  0
  7 31  1  0
  9 32  1  0
 10 33  1  0
 10 34  1  0
 11 35  1  0
 13 36  1  0
 13 37  1  0
 13 38  1  0
 14 39  1  0
 14 40  1  0
 15 41  1  0
 15 42  1  0
 18 43  1  0
 21 44  1  0
 21 45  1  0
 21 46  1  0
 23 47  1  0
 25 48  1  0
 25 49  1  0
 25 50  1  0
M  END
$$$$
