
     RDKit          3D

 36 38  0  0  0  0  0  0  0  0999 V2000
   -1.6388   -3.7819   -1.2074 O   0  0  0  0  0  0  0  0  0  0  0  0
   -0.9758   -2.7445   -0.9420 C   0  0  0  0  0  0  0  0  0  0  0  0
   -1.6320   -1.4328   -0.7003 C   0  0  0  0  0  0  0  0  0  0  0  0
   -0.8302   -0.3219   -0.3835 C   0  0  0  0  0  0  0  0  0  0  0  0
    0.5647   -0.4769   -0.3049 O   0  0  0  0  0  0  0  0  0  0  0  0
    1.4752    0.6248   -0.2599 C   0  0  1  0  0  0  0  0  0  0  0  0
    0.9070    1.7543    0.6063 C   0  0  0  0  0  0  0  0  0  0  0  0
   -0.4823    2.0627    0.1406 C   0  0  0  0  0  0  0  0  0  0  0  0
   -0.8090    3.2591   -0.0812 O   0  0  0  0  0  0  0  0  0  0  0  0
   -1.4107    0.9372   -0.1336 C   0  0  0  0  0  0  0  0  0  0  0  0
   -2.8182    1.0773   -0.1611 C   0  0  0  0  0  0  0  0  0  0  0  0
   -3.6251   -0.0166   -0.5410 C   0  0  0  0  0  0  0  0  0  0  0  0
   -3.0319   -1.2753   -0.7982 C   0  0  0  0  0  0  0  0  0  0  0  0
   -3.8185   -2.3804   -1.1440 O   0  0  0  0  0  0  0  0  0  0  0  0
   -5.1250    0.1416   -0.6296 C   0  0  0  0  0  0  0  0  0  0  0  0
   -3.4441    2.2697    0.2182 O   0  0  0  0  0  0  0  0  0  0  0  0
    2.8129    0.1680    0.2682 C   0  0  0  0  0  0  0  0  0  0  0  0
    4.0023    0.6434   -0.3115 C   0  0  0  0  0  0  0  0  0  0  0  0
    5.2429    0.2441    0.1953 C   0  0  0  0  0  0  0  0  0  0  0  0
    5.3073   -0.6232    1.2889 C   0  0  0  0  0  0  0  0  0  0  0  0
    4.1309   -1.0888    1.8817 C   0  0  0  0  0  0  0  0  0  0  0  0
    2.8880   -0.6922    1.3790 C   0  0  0  0  0  0  0  0  0  0  0  0
    0.1014   -2.8318   -0.8899 H   0  0  0  0  0  0  0  0  0  0  0  0
    1.5947    1.0066   -1.2992 H   0  0  0  0  0  0  0  0  0  0  0  0
    1.5539    2.6555    0.5250 H   0  0  0  0  0  0  0  0  0  0  0  0
    0.8629    1.4409    1.6720 H   0  0  0  0  0  0  0  0  0  0  0  0
   -4.8270   -2.3553   -1.2166 H   0  0  0  0  0  0  0  0  0  0  0  0
   -5.4736   -0.1487   -1.6430 H   0  0  0  0  0  0  0  0  0  0  0  0
   -5.4628    1.1836   -0.4588 H   0  0  0  0  0  0  0  0  0  0  0  0
   -5.6145   -0.5029    0.1302 H   0  0  0  0  0  0  0  0  0  0  0  0
   -2.9856    3.0099    0.7299 H   0  0  0  0  0  0  0  0  0  0  0  0
    3.9698    1.3231   -1.1538 H   0  0  0  0  0  0  0  0  0  0  0  0
    6.1550    0.6099   -0.2586 H   0  0  0  0  0  0  0  0  0  0  0  0
    6.2686   -0.9303    1.6800 H   0  0  0  0  0  0  0  0  0  0  0  0
    4.1820   -1.7549    2.7334 H   0  0  0  0  0  0  0  0  0  0  0  0
    1.9854   -1.0533    1.8562 H   0  0  0  0  0  0  0  0  0  0  0  0
  1  2  2  0
  2  3  1  0
  3  4  2  0
  4  5  1  0
  5  6  1  0
  6  7  1  0
  7  8  1  0
  8  9  2  0
  8 10  1  0
 10 11  2  0
 11 12  1  0
 12 13  2  0
 13 14  1  0
 12 15  1  0
 11 16  1  0
  6 17  1  0
 17 18  2  0
 18 19  1  0
 19 20  2  0
 20 21  1  0
 21 22  2  0
 13  3  1  0
 22 17  1  0
 10  4  1  0
  2 23  1  0
  6 24  1  6
  7 25  1  0
  7 26  1  0
 14 27  1  0
 15 28  1  0
 15 29  1  0
 15 30  1  0
 16 31  1  0
 18 32  1  0
 19 33  1  0
 20 34  1  0
 21 35  1  0
 22 36  1  0
M  END
$$$$
