
     RDKit          3D

 35 40  0  0  0  0  0  0  0  0999 V2000
    4.3071    2.3667   -0.7097 O   0  0  0  0  0  0  0  0  0  0  0  0
    3.1367    1.9821   -0.4493 C   0  0  0  0  0  0  0  0  0  0  0  0
    1.9200    2.7728   -0.6049 C   0  0  0  0  0  0  0  0  0  0  0  0
    1.8535    3.9712   -0.9841 O   0  0  0  0  0  0  0  0  0  0  0  0
    0.8085    1.8675   -0.2859 C   0  0  0  0  0  0  0  0  0  0  0  0
    1.3848    0.6640    0.0424 C   0  0  0  0  0  0  0  0  0  0  0  0
    2.8026    0.6744    0.0055 N   0  0  0  0  0  0  0  0  0  0  0  0
    3.5578   -0.5622   -0.1653 C   0  0  0  0  0  0  0  0  0  0  0  0
    2.8708   -1.7092    0.6137 C   0  0  0  0  0  0  0  0  0  0  0  0
    1.3520   -1.6986    0.4793 C   0  0  0  0  0  0  0  0  0  0  0  0
    0.6520   -0.4847    0.2438 C   0  0  0  0  0  0  0  0  0  0  0  0
   -0.7722   -0.4191    0.1716 C   0  0  0  0  0  0  0  0  0  0  0  0
   -1.4036    0.8453   -0.1150 C   0  0  0  0  0  0  0  0  0  0  0  0
   -0.5866    2.0016   -0.3641 C   0  0  0  0  0  0  0  0  0  0  0  0
   -1.1833    3.2342   -0.6795 C   0  0  0  0  0  0  0  0  0  0  0  0
   -2.5695    3.3501   -0.7408 C   0  0  0  0  0  0  0  0  0  0  0  0
   -3.3758    2.2447   -0.4883 C   0  0  0  0  0  0  0  0  0  0  0  0
   -2.8074    1.0075   -0.1784 C   0  0  0  0  0  0  0  0  0  0  0  0
   -1.4415   -1.6477    0.3754 C   0  0  0  0  0  0  0  0  0  0  0  0
   -0.7679   -2.8112    0.6220 C   0  0  0  0  0  0  0  0  0  0  0  0
    0.6191   -2.8785    0.6878 C   0  0  0  0  0  0  0  0  0  0  0  0
   -1.6634   -3.8510    0.7816 O   0  0  0  0  0  0  0  0  0  0  0  0
   -2.9842   -3.3274    0.6240 C   0  0  0  0  0  0  0  0  0  0  0  0
   -2.7962   -1.9320    0.3667 O   0  0  0  0  0  0  0  0  0  0  0  0
    3.5911   -0.8198   -1.2460 H   0  0  0  0  0  0  0  0  0  0  0  0
    4.5972   -0.4241    0.2016 H   0  0  0  0  0  0  0  0  0  0  0  0
    3.1216   -1.6096    1.6916 H   0  0  0  0  0  0  0  0  0  0  0  0
    3.2797   -2.6792    0.2565 H   0  0  0  0  0  0  0  0  0  0  0  0
   -0.5898    4.1165   -0.8687 H   0  0  0  0  0  0  0  0  0  0  0  0
   -3.0217    4.3041   -0.9798 H   0  0  0  0  0  0  0  0  0  0  0  0
   -4.4528    2.3465   -0.5320 H   0  0  0  0  0  0  0  0  0  0  0  0
   -3.4953    0.2057    0.0117 H   0  0  0  0  0  0  0  0  0  0  0  0
    1.1130   -3.8189    0.8970 H   0  0  0  0  0  0  0  0  0  0  0  0
   -3.5674   -3.4699    1.5578 H   0  0  0  0  0  0  0  0  0  0  0  0
   -3.4888   -3.8117   -0.2380 H   0  0  0  0  0  0  0  0  0  0  0  0
  1  2  2  0
  2  3  1  0
  3  4  2  0
  3  5  1  0
  5  6  2  0
  6  7  1  0
  7  8  1  0
  8  9  1  0
  9 10  1  0
 10 11  2  0
 11 12  1  0
 12 13  1  0
 13 14  2  0
 14 15  1  0
 15 16  2  0
 16 17  1  0
 17 18  2  0
 12 19  2  0
 19 20  1  0
 20 21  2  0
 20 22  1  0
 22 23  1  0
 23 24  1  0
  7  2  1  0
 21 10  1  0
 14  5  1  0
 24 19  1  0
 11  6  1  0
 18 13  1  0
  8 25  1  0
  8 26  1  0
  9 27  1  0
  9 28  1  0
 15 29  1  0
 16 30  1  0
 17 31  1  0
 18 32  1  0
 21 33  1  0
 23 34  1  0
 23 35  1  0
M  END
$$$$
