
     RDKit          3D

 30 34  0  0  0  0  0  0  0  0999 V2000
    0.9673   -3.6843    0.5441 O   0  0  0  0  0  0  0  0  0  0  0  0
    0.6773   -2.4698    0.3641 C   0  0  0  0  0  0  0  0  0  0  0  0
    1.7394   -1.4604    0.1842 C   0  0  0  0  0  0  0  0  0  0  0  0
    3.0900   -1.8529    0.2133 C   0  0  0  0  0  0  0  0  0  0  0  0
    4.1027   -0.9126    0.0452 C   0  0  0  0  0  0  0  0  0  0  0  0
    3.7811    0.4260   -0.1532 C   0  0  0  0  0  0  0  0  0  0  0  0
    2.4458    0.8335   -0.1849 C   0  0  0  0  0  0  0  0  0  0  0  0
    1.3949   -0.0986   -0.0172 C   0  0  0  0  0  0  0  0  0  0  0  0
   -0.0623    0.2932   -0.0436 C   0  0  0  0  0  0  0  0  0  0  0  0
   -1.0697   -0.7048    0.1332 C   0  0  0  0  0  0  0  0  0  0  0  0
   -0.7295   -2.0563    0.3331 C   0  0  0  0  0  0  0  0  0  0  0  0
   -1.7058   -2.9905    0.4994 N   0  0  0  0  0  0  0  0  0  0  0  0
   -3.0250   -2.6716    0.4810 C   0  0  0  0  0  0  0  0  0  0  0  0
   -3.4244   -1.3513    0.2872 C   0  0  0  0  0  0  0  0  0  0  0  0
   -2.4550   -0.3567    0.1118 C   0  0  0  0  0  0  0  0  0  0  0  0
   -2.8451    0.9777   -0.0843 C   0  0  0  0  0  0  0  0  0  0  0  0
   -1.8519    1.9278   -0.2535 C   0  0  0  0  0  0  0  0  0  0  0  0
   -0.5255    1.6144   -0.2361 C   0  0  0  0  0  0  0  0  0  0  0  0
    0.1905    2.7826   -0.4324 O   0  0  0  0  0  0  0  0  0  0  0  0
   -0.7226    3.8746   -0.5791 C   0  0  0  0  0  0  0  0  0  0  0  0
   -2.0181    3.2839   -0.4582 O   0  0  0  0  0  0  0  0  0  0  0  0
    3.3643   -2.8893    0.3663 H   0  0  0  0  0  0  0  0  0  0  0  0
    5.1396   -1.2225    0.0688 H   0  0  0  0  0  0  0  0  0  0  0  0
    4.5712    1.1545   -0.2836 H   0  0  0  0  0  0  0  0  0  0  0  0
    2.2742    1.8807   -0.3420 H   0  0  0  0  0  0  0  0  0  0  0  0
   -3.7666   -3.4473    0.6175 H   0  0  0  0  0  0  0  0  0  0  0  0
   -4.4806   -1.1098    0.2746 H   0  0  0  0  0  0  0  0  0  0  0  0
   -3.8882    1.2694   -0.1050 H   0  0  0  0  0  0  0  0  0  0  0  0
   -0.6051    4.3411   -1.5796 H   0  0  0  0  0  0  0  0  0  0  0  0
   -0.5631    4.6192    0.2287 H   0  0  0  0  0  0  0  0  0  0  0  0
  1  2  2  0
  2  3  1  0
  3  4  2  0
  4  5  1  0
  5  6  2  0
  6  7  1  0
  7  8  2  0
  8  9  1  0
  9 10  1  0
 10 11  2  0
 11 12  1  0
 12 13  2  0
 13 14  1  0
 14 15  2  0
 15 16  1  0
 16 17  2  0
 17 18  1  0
 18 19  1  0
 19 20  1  0
 20 21  1  0
 11  2  1  0
 21 17  1  0
  8  3  1  0
 18  9  2  0
 15 10  1  0
  4 22  1  0
  5 23  1  0
  6 24  1  0
  7 25  1  0
 13 26  1  0
 14 27  1  0
 16 28  1  0
 20 29  1  0
 20 30  1  0
M  END
$$$$
