
     RDKit          3D

 81 85  0  0  0  0  0  0  0  0999 V2000
   -4.7297    2.7776   -0.9237 C   0  0  0  0  0  0  0  0  0  0  0  0
   -4.5356    1.4615   -1.6401 C   0  0  0  0  0  0  0  0  0  0  0  0
   -4.4630    1.4710   -2.9809 C   0  0  0  0  0  0  0  0  0  0  0  0
   -4.4839    0.1361   -0.8810 C   0  0  2  0  0  0  0  0  0  0  0  0
   -5.7989   -0.1219   -0.1021 C   0  0  0  0  0  0  0  0  0  0  0  0
   -5.3955   -0.5086    1.3319 C   0  0  0  0  0  0  0  0  0  0  0  0
   -3.9328   -0.9512    1.2174 C   0  0  1  0  0  0  0  0  0  0  0  0
   -3.3920    0.0723    0.2043 C   0  0  1  0  0  0  0  0  0  0  0  0
   -1.9133   -0.2337   -0.1627 C   0  0  1  0  0  0  0  0  0  0  0  0
   -1.3682    0.6412   -1.3047 C   0  0  0  0  0  0  0  0  0  0  0  0
    0.0363    0.1845   -1.7164 C   0  0  0  0  0  0  0  0  0  0  0  0
    1.0330    0.2133   -0.5236 C   0  0  1  0  0  0  0  0  0  0  0  0
    0.5189   -0.6698    0.6982 C   0  0  1  0  0  0  0  0  0  0  0  0
   -0.9730   -0.1771    1.1219 C   0  0  1  0  0  0  0  0  0  0  0  0
   -0.9373    1.2830    1.7189 C   0  0  0  0  0  0  0  0  0  0  0  0
   -1.6025   -1.0696    2.2654 C   0  0  0  0  0  0  0  0  0  0  0  0
   -3.1164   -0.8287    2.5242 C   0  0  0  0  0  0  0  0  0  0  0  0
    0.5083   -2.1941    0.3324 C   0  0  0  0  0  0  0  0  0  0  0  0
    1.5278   -0.5040    1.8797 C   0  0  0  0  0  0  0  0  0  0  0  0
    2.9903   -0.7532    1.4846 C   0  0  0  0  0  0  0  0  0  0  0  0
    3.4388    0.2187    0.3657 C   0  0  2  0  0  0  0  0  0  0  0  0
    2.5693    0.0727   -0.9443 C   0  0  1  0  0  0  0  0  0  0  0  0
    2.8290   -1.2721   -1.6997 C   0  0  0  0  0  0  0  0  0  0  0  0
    2.9342    1.2639   -1.9168 C   0  0  0  0  0  0  0  0  0  0  0  0
    4.3295    1.8950   -1.7374 C   0  0  0  0  0  0  0  0  0  0  0  0
    5.4049    0.9285   -1.2237 C   0  0  1  0  0  0  0  0  0  0  0  0
    5.0180    0.3133    0.1831 C   0  0  0  0  0  0  0  0  0  0  0  0
    5.5634    1.2915    1.2681 C   0  0  0  0  0  0  0  0  0  0  0  0
    5.7508   -1.0348    0.4471 C   0  0  0  0  0  0  0  0  0  0  0  0
    5.7542    0.0170   -2.2436 O   0  0  0  0  0  0  0  0  0  0  0  0
   -3.9261   -2.4362    0.7246 C   0  0  0  0  0  0  0  0  0  0  0  0
   -3.8228    3.4074   -1.0460 H   0  0  0  0  0  0  0  0  0  0  0  0
   -4.9218    2.6351    0.1591 H   0  0  0  0  0  0  0  0  0  0  0  0
   -5.6059    3.3139   -1.3500 H   0  0  0  0  0  0  0  0  0  0  0  0
   -4.3494    0.5508   -3.5460 H   0  0  0  0  0  0  0  0  0  0  0  0
   -4.5123    2.4046   -3.5331 H   0  0  0  0  0  0  0  0  0  0  0  0
   -4.3166   -0.7044   -1.5929 H   0  0  0  0  0  0  0  0  0  0  0  0
   -6.3565   -0.9571   -0.5790 H   0  0  0  0  0  0  0  0  0  0  0  0
   -6.4724    0.7623   -0.0780 H   0  0  0  0  0  0  0  0  0  0  0  0
   -5.4780    0.3861    1.9881 H   0  0  0  0  0  0  0  0  0  0  0  0
   -6.0571   -1.3030    1.7411 H   0  0  0  0  0  0  0  0  0  0  0  0
   -3.4103    1.0660    0.6821 H   0  0  0  0  0  0  0  0  0  0  0  0
   -1.9238   -1.2532   -0.5795 H   0  0  0  0  0  0  0  0  0  0  0  0
   -1.3684    1.7161   -1.0319 H   0  0  0  0  0  0  0  0  0  0  0  0
   -2.0149    0.5288   -2.1976 H   0  0  0  0  0  0  0  0  0  0  0  0
   -0.0484   -0.8312   -2.1495 H   0  0  0  0  0  0  0  0  0  0  0  0
    0.3781    0.8525   -2.5328 H   0  0  0  0  0  0  0  0  0  0  0  0
    0.9898    1.2552   -0.1606 H   0  0  0  0  0  0  0  0  0  0  0  0
   -1.9300    1.6686    2.0046 H   0  0  0  0  0  0  0  0  0  0  0  0
   -0.3955    1.3194    2.6817 H   0  0  0  0  0  0  0  0  0  0  0  0
   -0.5156    2.0480    1.0469 H   0  0  0  0  0  0  0  0  0  0  0  0
   -1.4940   -2.1438    2.0585 H   0  0  0  0  0  0  0  0  0  0  0  0
   -1.0604   -0.9032    3.2202 H   0  0  0  0  0  0  0  0  0  0  0  0
   -3.2707    0.1666    2.9903 H   0  0  0  0  0  0  0  0  0  0  0  0
   -3.4801   -1.5746    3.2643 H   0  0  0  0  0  0  0  0  0  0  0  0
   -0.1926   -2.4569   -0.4754 H   0  0  0  0  0  0  0  0  0  0  0  0
    1.4872   -2.5723    0.0157 H   0  0  0  0  0  0  0  0  0  0  0  0
    0.2907   -2.8282    1.2111 H   0  0  0  0  0  0  0  0  0  0  0  0
    1.2638   -1.1885    2.7153 H   0  0  0  0  0  0  0  0  0  0  0  0
    1.5095    0.5227    2.2856 H   0  0  0  0  0  0  0  0  0  0  0  0
    3.1592   -1.8100    1.2044 H   0  0  0  0  0  0  0  0  0  0  0  0
    3.6017   -0.5824    2.3948 H   0  0  0  0  0  0  0  0  0  0  0  0
    3.1435    1.2234    0.7497 H   0  0  0  0  0  0  0  0  0  0  0  0
    3.4031   -1.1393   -2.6354 H   0  0  0  0  0  0  0  0  0  0  0  0
    3.3666   -2.0105   -1.0840 H   0  0  0  0  0  0  0  0  0  0  0  0
    1.9017   -1.7594   -2.0408 H   0  0  0  0  0  0  0  0  0  0  0  0
    2.8112    0.9637   -2.9806 H   0  0  0  0  0  0  0  0  0  0  0  0
    2.2182    2.1065   -1.7927 H   0  0  0  0  0  0  0  0  0  0  0  0
    4.2480    2.7452   -1.0248 H   0  0  0  0  0  0  0  0  0  0  0  0
    4.6578    2.3337   -2.7047 H   0  0  0  0  0  0  0  0  0  0  0  0
    6.3193    1.5490   -1.0920 H   0  0  0  0  0  0  0  0  0  0  0  0
    5.1568    2.3169    1.1287 H   0  0  0  0  0  0  0  0  0  0  0  0
    6.6732    1.3597    1.2235 H   0  0  0  0  0  0  0  0  0  0  0  0
    5.2945    0.9601    2.2926 H   0  0  0  0  0  0  0  0  0  0  0  0
    5.3054   -1.8873   -0.0957 H   0  0  0  0  0  0  0  0  0  0  0  0
    6.8202   -0.9569    0.1532 H   0  0  0  0  0  0  0  0  0  0  0  0
    5.7283   -1.3043    1.5237 H   0  0  0  0  0  0  0  0  0  0  0  0
    5.4397   -0.8889   -2.0213 H   0  0  0  0  0  0  0  0  0  0  0  0
   -2.9141   -2.8357    0.5308 H   0  0  0  0  0  0  0  0  0  0  0  0
   -4.5122   -2.5718   -0.2069 H   0  0  0  0  0  0  0  0  0  0  0  0
   -4.3821   -3.0895    1.4988 H   0  0  0  0  0  0  0  0  0  0  0  0
  1  2  1  0
  2  3  2  3
  2  4  1  0
  4  5  1  0
  5  6  1  0
  6  7  1  0
  7  8  1  0
  8  9  1  0
  9 10  1  0
 10 11  1  0
 11 12  1  0
 12 13  1  0
 13 14  1  0
 14 15  1  1
 14 16  1  0
 16 17  1  0
 13 18  1  6
 13 19  1  0
 19 20  1  0
 20 21  1  0
 21 22  1  0
 22 23  1  6
 22 24  1  0
 24 25  1  0
 25 26  1  0
 26 27  1  0
 27 28  1  0
 27 29  1  0
 26 30  1  0
  7 31  1  6
  8  4  1  0
 14  9  1  0
 27 21  1  0
 17  7  1  0
 22 12  1  0
  1 32  1  0
  1 33  1  0
  1 34  1  0
  3 35  1  0
  3 36  1  0
  4 37  1  6
  5 38  1  0
  5 39  1  0
  6 40  1  0
  6 41  1  0
  8 42  1  1
  9 43  1  6
 10 44  1  0
 10 45  1  0
 11 46  1  0
 11 47  1  0
 12 48  1  1
 15 49  1  0
 15 50  1  0
 15 51  1  0
 16 52  1  0
 16 53  1  0
 17 54  1  0
 17 55  1  0
 18 56  1  0
 18 57  1  0
 18 58  1  0
 19 59  1  0
 19 60  1  0
 20 61  1  0
 20 62  1  0
 21 63  1  1
 23 64  1  0
 23 65  1  0
 23 66  1  0
 24 67  1  0
 24 68  1  0
 25 69  1  0
 25 70  1  0
 26 71  1  1
 28 72  1  0
 28 73  1  0
 28 74  1  0
 29 75  1  0
 29 76  1  0
 29 77  1  0
 30 78  1  0
 31 79  1  0
 31 80  1  0
 31 81  1  0
M  END
$$$$
