
     RDKit          3D

 98 99  0  0  0  0  0  0  0  0999 V2000
   -3.1371   -2.3831   -0.5772 C   0  0  0  0  0  0  0  0  0  0  0  0
   -3.0770   -0.9316   -0.1627 C   0  0  0  0  0  0  0  0  0  0  0  0
   -1.9614   -0.1787   -0.2000 C   0  0  0  0  0  0  0  0  0  0  0  0
   -0.6034   -0.7209   -0.4476 C   0  0  0  0  0  0  0  0  0  0  0  0
    0.3877    0.0776   -0.8511 C   0  0  0  0  0  0  0  0  0  0  0  0
    1.7416   -0.4243   -1.1261 C   0  0  0  0  0  0  0  0  0  0  0  0
    2.8422    0.3495   -1.0732 C   0  0  0  0  0  0  0  0  0  0  0  0
    4.1424   -0.2685   -1.3947 C   0  0  0  0  0  0  0  0  0  0  0  0
    5.2499    0.4530   -1.5614 C   0  0  0  0  0  0  0  0  0  0  0  0
    6.5760   -0.1645   -1.4411 C   0  0  0  0  0  0  0  0  0  0  0  0
    7.3050    0.0351   -0.3215 C   0  0  0  0  0  0  0  0  0  0  0  0
    8.7612   -0.2585   -0.3406 C   0  0  0  0  0  0  0  0  0  0  0  0
    9.6417    0.7294   -0.1563 C   0  0  0  0  0  0  0  0  0  0  0  0
   11.0911    0.5044    0.0484 C   0  0  0  0  0  0  0  0  0  0  0  0
   11.8625   -0.0117   -0.9464 C   0  0  0  0  0  0  0  0  0  0  0  0
   11.2823   -0.3835   -2.3013 C   0  0  0  0  0  0  0  0  0  0  0  0
   13.3398   -0.2432   -0.7276 C   0  0  0  0  0  0  0  0  0  0  0  0
   13.6358   -0.5581    0.7361 C   0  0  2  0  0  0  0  0  0  0  0  0
   13.1928    0.6618    1.5557 C   0  0  0  0  0  0  0  0  0  0  0  0
   11.6623    0.9398    1.4085 C   0  0  0  0  0  0  0  0  0  0  0  0
   10.8977    0.1705    2.5163 C   0  0  0  0  0  0  0  0  0  0  0  0
   11.4541    2.4619    1.5915 C   0  0  0  0  0  0  0  0  0  0  0  0
   15.0152   -0.7484    0.9070 O   0  0  0  0  0  0  0  0  0  0  0  0
    6.6622    0.6464    0.9046 C   0  0  0  0  0  0  0  0  0  0  0  0
    2.7765    1.8123   -0.6118 C   0  0  0  0  0  0  0  0  0  0  0  0
   -4.3656   -0.2827    0.1255 C   0  0  0  0  0  0  0  0  0  0  0  0
   -5.1699   -0.8040    1.0372 C   0  0  0  0  0  0  0  0  0  0  0  0
   -6.6068   -0.4789    1.0727 C   0  0  0  0  0  0  0  0  0  0  0  0
   -7.5531   -1.4416    1.1121 C   0  0  0  0  0  0  0  0  0  0  0  0
   -8.9657   -1.0770    1.3392 C   0  0  0  0  0  0  0  0  0  0  0  0
   -9.5471   -0.1068    0.6774 C   0  0  0  0  0  0  0  0  0  0  0  0
  -11.0259    0.1874    0.8256 C   0  0  1  0  0  0  0  0  0  0  0  0
  -11.3136    1.6802    1.0174 C   0  0  0  0  0  0  0  0  0  0  0  0
  -12.6040    2.0514    1.0359 C   0  0  0  0  0  0  0  0  0  0  0  0
  -13.6914    1.0524    0.7250 C   0  0  1  0  0  0  0  0  0  0  0  0
  -13.2493    0.2677   -0.5167 C   0  0  0  0  0  0  0  0  0  0  0  0
  -11.8788   -0.4709   -0.3427 C   0  0  0  0  0  0  0  0  0  0  0  0
  -12.1615   -1.9554    0.0079 C   0  0  0  0  0  0  0  0  0  0  0  0
  -11.1143   -0.4305   -1.7096 C   0  0  0  0  0  0  0  0  0  0  0  0
  -13.8889    0.1706    1.8077 O   0  0  0  0  0  0  0  0  0  0  0  0
  -10.2256    2.7259    1.1584 C   0  0  0  0  0  0  0  0  0  0  0  0
   -7.2051   -2.8953    0.9963 C   0  0  0  0  0  0  0  0  0  0  0  0
   -3.4832   -3.0039    0.2905 H   0  0  0  0  0  0  0  0  0  0  0  0
   -2.1475   -2.7793   -0.8983 H   0  0  0  0  0  0  0  0  0  0  0  0
   -3.8362   -2.4709   -1.4525 H   0  0  0  0  0  0  0  0  0  0  0  0
   -2.0410    0.9006   -0.0293 H   0  0  0  0  0  0  0  0  0  0  0  0
   -0.3730   -1.7598   -0.2907 H   0  0  0  0  0  0  0  0  0  0  0  0
    0.1501    1.1264   -1.0344 H   0  0  0  0  0  0  0  0  0  0  0  0
    1.8462   -1.4899   -1.3443 H   0  0  0  0  0  0  0  0  0  0  0  0
    4.2533   -1.3439   -1.3443 H   0  0  0  0  0  0  0  0  0  0  0  0
    5.2373    1.5456   -1.5633 H   0  0  0  0  0  0  0  0  0  0  0  0
    7.0195   -0.6445   -2.3061 H   0  0  0  0  0  0  0  0  0  0  0  0
    9.1061   -1.2765   -0.5058 H   0  0  0  0  0  0  0  0  0  0  0  0
    9.2383    1.7287    0.0111 H   0  0  0  0  0  0  0  0  0  0  0  0
   12.0828   -0.5219   -3.0430 H   0  0  0  0  0  0  0  0  0  0  0  0
   10.7133   -1.3380   -2.2556 H   0  0  0  0  0  0  0  0  0  0  0  0
   10.6386    0.4423   -2.6872 H   0  0  0  0  0  0  0  0  0  0  0  0
   13.6989   -1.0755   -1.3701 H   0  0  0  0  0  0  0  0  0  0  0  0
   13.8838    0.6791   -1.0327 H   0  0  0  0  0  0  0  0  0  0  0  0
   13.0718   -1.4768    1.0312 H   0  0  0  0  0  0  0  0  0  0  0  0
   13.7895    1.5395    1.2187 H   0  0  0  0  0  0  0  0  0  0  0  0
   13.4498    0.5065    2.6271 H   0  0  0  0  0  0  0  0  0  0  0  0
   10.9651   -0.9186    2.3532 H   0  0  0  0  0  0  0  0  0  0  0  0
    9.8213    0.4461    2.5322 H   0  0  0  0  0  0  0  0  0  0  0  0
   11.3193    0.4053    3.5253 H   0  0  0  0  0  0  0  0  0  0  0  0
   11.9442    2.8043    2.5174 H   0  0  0  0  0  0  0  0  0  0  0  0
   10.3854    2.7443    1.6625 H   0  0  0  0  0  0  0  0  0  0  0  0
   11.9094    3.0141    0.7312 H   0  0  0  0  0  0  0  0  0  0  0  0
   15.1558   -1.1062    1.8211 H   0  0  0  0  0  0  0  0  0  0  0  0
    7.2957    0.5669    1.8157 H   0  0  0  0  0  0  0  0  0  0  0  0
    5.6848    0.1379    1.1256 H   0  0  0  0  0  0  0  0  0  0  0  0
    6.4629    1.7288    0.7229 H   0  0  0  0  0  0  0  0  0  0  0  0
    3.6352    2.0265    0.0695 H   0  0  0  0  0  0  0  0  0  0  0  0
    2.7948    2.4823   -1.5029 H   0  0  0  0  0  0  0  0  0  0  0  0
    1.8887    2.0203    0.0039 H   0  0  0  0  0  0  0  0  0  0  0  0
   -4.7171    0.4875   -0.5492 H   0  0  0  0  0  0  0  0  0  0  0  0
   -4.8154   -1.6339    1.6523 H   0  0  0  0  0  0  0  0  0  0  0  0
   -6.8592    0.5813    1.1123 H   0  0  0  0  0  0  0  0  0  0  0  0
   -9.5921   -1.7939    1.8646 H   0  0  0  0  0  0  0  0  0  0  0  0
   -8.9802    0.3452   -0.1254 H   0  0  0  0  0  0  0  0  0  0  0  0
  -11.3624   -0.2542    1.7831 H   0  0  0  0  0  0  0  0  0  0  0  0
  -12.8647    3.1076    1.1567 H   0  0  0  0  0  0  0  0  0  0  0  0
  -14.6454    1.5870    0.5055 H   0  0  0  0  0  0  0  0  0  0  0  0
  -13.1727    1.0211   -1.3321 H   0  0  0  0  0  0  0  0  0  0  0  0
  -14.0409   -0.4219   -0.8528 H   0  0  0  0  0  0  0  0  0  0  0  0
  -12.8986   -2.4088   -0.6824 H   0  0  0  0  0  0  0  0  0  0  0  0
  -11.2155   -2.5653   -0.0518 H   0  0  0  0  0  0  0  0  0  0  0  0
  -12.5634   -2.0408    1.0515 H   0  0  0  0  0  0  0  0  0  0  0  0
  -10.1311   -0.9648   -1.6543 H   0  0  0  0  0  0  0  0  0  0  0  0
  -10.9383    0.6164   -2.0404 H   0  0  0  0  0  0  0  0  0  0  0  0
  -11.6998   -0.9561   -2.4979 H   0  0  0  0  0  0  0  0  0  0  0  0
  -14.1151    0.7303    2.6181 H   0  0  0  0  0  0  0  0  0  0  0  0
   -9.7569    2.9118    0.1568 H   0  0  0  0  0  0  0  0  0  0  0  0
  -10.6339    3.6876    1.5545 H   0  0  0  0  0  0  0  0  0  0  0  0
   -9.4507    2.3562    1.8672 H   0  0  0  0  0  0  0  0  0  0  0  0
   -6.3854   -3.0353    0.2381 H   0  0  0  0  0  0  0  0  0  0  0  0
   -6.8429   -3.2701    1.9675 H   0  0  0  0  0  0  0  0  0  0  0  0
   -8.0539   -3.4857    0.6399 H   0  0  0  0  0  0  0  0  0  0  0  0
  1  2  1  0
  2  3  2  0
  3  4  1  0
  4  5  2  0
  5  6  1  0
  6  7  2  0
  7  8  1  0
  8  9  2  0
  9 10  1  0
 10 11  2  0
 11 12  1  0
 12 13  2  0
 13 14  1  0
 14 15  2  0
 15 16  1  0
 15 17  1  0
 17 18  1  0
 18 19  1  0
 19 20  1  0
 20 21  1  0
 20 22  1  0
 18 23  1  0
 11 24  1  0
  7 25  1  0
  2 26  1  0
 26 27  2  0
 27 28  1  0
 28 29  2  0
 29 30  1  0
 30 31  2  0
 31 32  1  0
 32 33  1  0
 33 34  2  0
 34 35  1  0
 35 36  1  0
 36 37  1  0
 37 38  1  0
 37 39  1  0
 35 40  1  0
 33 41  1  0
 29 42  1  0
 20 14  1  0
 37 32  1  0
  1 43  1  0
  1 44  1  0
  1 45  1  0
  3 46  1  0
  4 47  1  0
  5 48  1  0
  6 49  1  0
  8 50  1  0
  9 51  1  0
 10 52  1  0
 12 53  1  0
 13 54  1  0
 16 55  1  0
 16 56  1  0
 16 57  1  0
 17 58  1  0
 17 59  1  0
 18 60  1  1
 19 61  1  0
 19 62  1  0
 21 63  1  0
 21 64  1  0
 21 65  1  0
 22 66  1  0
 22 67  1  0
 22 68  1  0
 23 69  1  0
 24 70  1  0
 24 71  1  0
 24 72  1  0
 25 73  1  0
 25 74  1  0
 25 75  1  0
 26 76  1  0
 27 77  1  0
 28 78  1  0
 30 79  1  0
 31 80  1  0
 32 81  1  1
 34 82  1  0
 35 83  1  6
 36 84  1  0
 36 85  1  0
 38 86  1  0
 38 87  1  0
 38 88  1  0
 39 89  1  0
 39 90  1  0
 39 91  1  0
 40 92  1  0
 41 93  1  0
 41 94  1  0
 41 95  1  0
 42 96  1  0
 42 97  1  0
 42 98  1  0
M  END
$$$$
