
     RDKit          3D

 47 48  0  0  0  0  0  0  0  0999 V2000
    4.6874   -1.0709   -2.3872 C   0  0  0  0  0  0  0  0  0  0  0  0
    4.1118   -0.6504   -1.1569 O   0  0  0  0  0  0  0  0  0  0  0  0
    4.4758    0.5406   -0.5221 C   0  0  0  0  0  0  0  0  0  0  0  0
    5.3522    1.2965   -1.0237 O   0  0  0  0  0  0  0  0  0  0  0  0
    3.7801    0.9436    0.7383 C   0  0  0  0  0  0  0  0  0  0  0  0
    2.5737    1.7857    0.4168 C   0  0  0  0  0  0  0  0  0  0  0  0
    2.6431    3.1853    0.5207 C   0  0  0  0  0  0  0  0  0  0  0  0
    1.5362    3.9778    0.1965 C   0  0  0  0  0  0  0  0  0  0  0  0
    1.6266    5.3631    0.3124 O   0  0  0  0  0  0  0  0  0  0  0  0
    0.3514    3.3753   -0.2470 C   0  0  0  0  0  0  0  0  0  0  0  0
    0.2751    1.9821   -0.3615 C   0  0  0  0  0  0  0  0  0  0  0  0
    1.3804    1.1887   -0.0293 C   0  0  0  0  0  0  0  0  0  0  0  0
    1.2881   -0.2008   -0.1754 O   0  0  0  0  0  0  0  0  0  0  0  0
    0.0389   -0.8977   -0.2975 C   0  0  0  0  0  0  0  0  0  0  0  0
    0.2874   -2.1138   -1.2035 C   0  0  0  0  0  0  0  0  0  0  0  0
   -0.3890   -1.3348    1.1315 C   0  0  0  0  0  0  0  0  0  0  0  0
   -1.7769   -2.0008    1.2507 C   0  0  0  0  0  0  0  0  0  0  0  0
   -2.8998   -0.9919    1.3374 C   0  0  0  0  0  0  0  0  0  0  0  0
   -4.2023   -1.3406    1.3934 C   0  0  0  0  0  0  0  0  0  0  0  0
   -4.6352   -2.7874    1.3728 C   0  0  0  0  0  0  0  0  0  0  0  0
   -5.2398   -0.2512    1.4767 C   0  0  0  0  0  0  0  0  0  0  0  0
   -1.0165   -0.0064   -0.9336 C   0  0  0  0  0  0  0  0  0  0  0  0
   -0.9293    1.3262   -0.8924 C   0  0  0  0  0  0  0  0  0  0  0  0
    5.7839   -1.2015   -2.2692 H   0  0  0  0  0  0  0  0  0  0  0  0
    4.4811   -0.3199   -3.1790 H   0  0  0  0  0  0  0  0  0  0  0  0
    4.2392   -2.0407   -2.6859 H   0  0  0  0  0  0  0  0  0  0  0  0
    4.4866    1.4997    1.3926 H   0  0  0  0  0  0  0  0  0  0  0  0
    3.4700    0.0348    1.2979 H   0  0  0  0  0  0  0  0  0  0  0  0
    3.5576    3.6629    0.8508 H   0  0  0  0  0  0  0  0  0  0  0  0
    0.8448    5.9659    0.0840 H   0  0  0  0  0  0  0  0  0  0  0  0
   -0.5000    3.9906   -0.5114 H   0  0  0  0  0  0  0  0  0  0  0  0
    0.7255   -1.7795   -2.1687 H   0  0  0  0  0  0  0  0  0  0  0  0
   -0.6510   -2.6610   -1.4293 H   0  0  0  0  0  0  0  0  0  0  0  0
    1.0061   -2.8139   -0.7261 H   0  0  0  0  0  0  0  0  0  0  0  0
    0.3700   -2.0521    1.5152 H   0  0  0  0  0  0  0  0  0  0  0  0
   -0.3425   -0.4578    1.8149 H   0  0  0  0  0  0  0  0  0  0  0  0
   -1.7899   -2.6061    2.1826 H   0  0  0  0  0  0  0  0  0  0  0  0
   -1.9515   -2.6930    0.4037 H   0  0  0  0  0  0  0  0  0  0  0  0
   -2.6462    0.0655    1.3598 H   0  0  0  0  0  0  0  0  0  0  0  0
   -5.7383   -2.8836    1.4475 H   0  0  0  0  0  0  0  0  0  0  0  0
   -4.1857   -3.3299    2.2307 H   0  0  0  0  0  0  0  0  0  0  0  0
   -4.3139   -3.2654    0.4237 H   0  0  0  0  0  0  0  0  0  0  0  0
   -5.1598    0.4112    0.5886 H   0  0  0  0  0  0  0  0  0  0  0  0
   -5.0774    0.3520    2.3951 H   0  0  0  0  0  0  0  0  0  0  0  0
   -6.2690   -0.6654    1.5096 H   0  0  0  0  0  0  0  0  0  0  0  0
   -1.9151   -0.4559   -1.3398 H   0  0  0  0  0  0  0  0  0  0  0  0
   -1.7440    1.9246   -1.2816 H   0  0  0  0  0  0  0  0  0  0  0  0
  1  2  1  0
  2  3  1  0
  3  4  2  0
  3  5  1  0
  5  6  1  0
  6  7  2  0
  7  8  1  0
  8  9  1  0
  8 10  2  0
 10 11  1  0
 11 12  2  0
 12 13  1  0
 13 14  1  0
 14 15  1  0
 14 16  1  0
 16 17  1  0
 17 18  1  0
 18 19  2  3
 19 20  1  0
 19 21  1  0
 14 22  1  0
 22 23  2  0
 12  6  1  0
 23 11  1  0
  1 24  1  0
  1 25  1  0
  1 26  1  0
  5 27  1  0
  5 28  1  0
  7 29  1  0
  9 30  1  0
 10 31  1  0
 15 32  1  0
 15 33  1  0
 15 34  1  0
 16 35  1  0
 16 36  1  0
 17 37  1  0
 17 38  1  0
 18 39  1  0
 20 40  1  0
 20 41  1  0
 20 42  1  0
 21 43  1  0
 21 44  1  0
 21 45  1  0
 22 46  1  0
 23 47  1  0
M  END
$$$$
