
     RDKit          3D

 73 74  0  0  0  0  0  0  0  0999 V2000
   -2.1020    2.8732    3.1236 C   0  0  0  0  0  0  0  0  0  0  0  0
   -1.5456    2.2988    1.9473 O   0  0  0  0  0  0  0  0  0  0  0  0
   -0.8517    1.0865    1.9552 C   0  0  0  0  0  0  0  0  0  0  0  0
   -0.6806    0.4668    3.0406 O   0  0  0  0  0  0  0  0  0  0  0  0
   -0.2491    0.5234    0.6916 C   0  0  0  0  0  0  0  0  0  0  0  0
   -1.1265    0.6142   -0.6060 C   0  0  2  0  0  0  0  0  0  0  0  0
   -0.4814   -0.3340   -1.6334 C   0  0  0  0  0  0  0  0  0  0  0  0
   -0.8275   -1.5475   -1.6596 O   0  0  0  0  0  0  0  0  0  0  0  0
    0.6067    0.1025   -2.5439 C   0  0  0  0  0  0  0  0  0  0  0  0
    0.8916    1.3983   -2.6846 C   0  0  0  0  0  0  0  0  0  0  0  0
    0.1431    2.4328   -1.9741 C   0  0  0  0  0  0  0  0  0  0  0  0
    0.5071    3.6346   -2.0901 O   0  0  0  0  0  0  0  0  0  0  0  0
   -1.0748    2.1046   -1.1507 C   0  0  1  0  0  0  0  0  0  0  0  0
   -2.3522    2.4789   -1.9182 C   0  0  0  0  0  0  0  0  0  0  0  0
   -3.5094    2.3742   -0.9675 C   0  0  0  0  0  0  0  0  0  0  0  0
   -3.6081    1.3075   -0.1505 C   0  0  0  0  0  0  0  0  0  0  0  0
   -2.6416    0.1368   -0.3833 C   0  0  0  0  0  0  0  0  0  0  0  0
   -2.8065   -1.0386    0.6286 C   0  0  0  0  0  0  0  0  0  0  0  0
   -4.0653   -1.8425    0.3905 C   0  0  0  0  0  0  0  0  0  0  0  0
   -4.4509   -2.8624    1.1898 C   0  0  0  0  0  0  0  0  0  0  0  0
   -3.6254   -3.2876    2.3806 C   0  0  0  0  0  0  0  0  0  0  0  0
   -5.7270   -3.5929    0.8648 C   0  0  0  0  0  0  0  0  0  0  0  0
   -4.7164    1.2711    0.8789 C   0  0  0  0  0  0  0  0  0  0  0  0
    1.3845   -0.9117   -3.3578 C   0  0  0  0  0  0  0  0  0  0  0  0
    2.8603   -0.8606   -3.0438 C   0  0  0  0  0  0  0  0  0  0  0  0
    3.4188   -1.3310   -1.9053 C   0  0  0  0  0  0  0  0  0  0  0  0
    4.9087   -1.1595   -1.6953 C   0  0  0  0  0  0  0  0  0  0  0  0
    5.2689    0.2983   -1.3732 C   0  0  0  0  0  0  0  0  0  0  0  0
    4.6816    0.7298   -0.0476 C   0  0  0  0  0  0  0  0  0  0  0  0
    5.2939    0.5634    1.1471 C   0  0  0  0  0  0  0  0  0  0  0  0
    6.6862   -0.0157    1.2593 C   0  0  0  0  0  0  0  0  0  0  0  0
    4.5620    0.9795    2.3983 C   0  0  0  0  0  0  0  0  0  0  0  0
    2.5967   -2.0094   -0.8353 C   0  0  0  0  0  0  0  0  0  0  0  0
   -2.8359    2.1745    3.5774 H   0  0  0  0  0  0  0  0  0  0  0  0
   -2.6248    3.8145    2.8561 H   0  0  0  0  0  0  0  0  0  0  0  0
   -1.2951    3.0996    3.8534 H   0  0  0  0  0  0  0  0  0  0  0  0
    0.0061   -0.5402    0.8925 H   0  0  0  0  0  0  0  0  0  0  0  0
    0.7228    1.0364    0.5214 H   0  0  0  0  0  0  0  0  0  0  0  0
    1.6937    1.7088   -3.3457 H   0  0  0  0  0  0  0  0  0  0  0  0
   -1.0249    2.8064   -0.2939 H   0  0  0  0  0  0  0  0  0  0  0  0
   -2.5025    1.7917   -2.7801 H   0  0  0  0  0  0  0  0  0  0  0  0
   -2.2902    3.5207   -2.3019 H   0  0  0  0  0  0  0  0  0  0  0  0
   -4.1845    3.2208   -0.8685 H   0  0  0  0  0  0  0  0  0  0  0  0
   -2.9789   -0.2663   -1.3670 H   0  0  0  0  0  0  0  0  0  0  0  0
   -1.9536   -1.7396    0.5401 H   0  0  0  0  0  0  0  0  0  0  0  0
   -2.8093   -0.6545    1.6674 H   0  0  0  0  0  0  0  0  0  0  0  0
   -4.6926   -1.5830   -0.4590 H   0  0  0  0  0  0  0  0  0  0  0  0
   -3.5465   -2.4514    3.1054 H   0  0  0  0  0  0  0  0  0  0  0  0
   -4.0827   -4.1501    2.9084 H   0  0  0  0  0  0  0  0  0  0  0  0
   -2.6078   -3.5882    2.0519 H   0  0  0  0  0  0  0  0  0  0  0  0
   -5.6677   -4.0226   -0.1598 H   0  0  0  0  0  0  0  0  0  0  0  0
   -6.5856   -2.8896    0.9158 H   0  0  0  0  0  0  0  0  0  0  0  0
   -5.9141   -4.4245    1.5763 H   0  0  0  0  0  0  0  0  0  0  0  0
   -5.4764    0.5168    0.5921 H   0  0  0  0  0  0  0  0  0  0  0  0
   -5.2306    2.2526    0.9637 H   0  0  0  0  0  0  0  0  0  0  0  0
   -4.3101    1.0292    1.8812 H   0  0  0  0  0  0  0  0  0  0  0  0
    1.0075   -1.9460   -3.2232 H   0  0  0  0  0  0  0  0  0  0  0  0
    1.2452   -0.6702   -4.4341 H   0  0  0  0  0  0  0  0  0  0  0  0
    3.5029   -0.4005   -3.7910 H   0  0  0  0  0  0  0  0  0  0  0  0
    5.2682   -1.8176   -0.8773 H   0  0  0  0  0  0  0  0  0  0  0  0
    5.4517   -1.4796   -2.6096 H   0  0  0  0  0  0  0  0  0  0  0  0
    4.8789    0.9642   -2.1705 H   0  0  0  0  0  0  0  0  0  0  0  0
    6.3717    0.4171   -1.3786 H   0  0  0  0  0  0  0  0  0  0  0  0
    3.6792    1.1542   -0.0683 H   0  0  0  0  0  0  0  0  0  0  0  0
    6.7169   -1.0338    0.8212 H   0  0  0  0  0  0  0  0  0  0  0  0
    7.0139   -0.0934    2.3192 H   0  0  0  0  0  0  0  0  0  0  0  0
    7.4111    0.6382    0.7288 H   0  0  0  0  0  0  0  0  0  0  0  0
    3.6106    0.4128    2.4811 H   0  0  0  0  0  0  0  0  0  0  0  0
    4.3386    2.0672    2.3599 H   0  0  0  0  0  0  0  0  0  0  0  0
    5.1646    0.7840    3.3106 H   0  0  0  0  0  0  0  0  0  0  0  0
    3.2344   -2.3796   -0.0053 H   0  0  0  0  0  0  0  0  0  0  0  0
    1.8790   -1.2860   -0.4035 H   0  0  0  0  0  0  0  0  0  0  0  0
    2.0486   -2.8755   -1.2626 H   0  0  0  0  0  0  0  0  0  0  0  0
  1  2  1  0
  2  3  1  0
  3  4  2  0
  3  5  1  0
  6  5  1  1
  6  7  1  0
  7  8  2  0
  7  9  1  0
  9 10  2  0
 10 11  1  0
 11 12  2  0
 11 13  1  0
 13 14  1  0
 14 15  1  0
 15 16  2  0
 16 17  1  0
 17 18  1  0
 18 19  1  0
 19 20  2  3
 20 21  1  0
 20 22  1  0
 16 23  1  0
  9 24  1  0
 24 25  1  0
 25 26  2  0
 26 27  1  0
 27 28  1  0
 28 29  1  0
 29 30  2  3
 30 31  1  0
 30 32  1  0
 26 33  1  0
 13  6  1  0
 17  6  1  0
  1 34  1  0
  1 35  1  0
  1 36  1  0
  5 37  1  0
  5 38  1  0
 10 39  1  0
 13 40  1  1
 14 41  1  0
 14 42  1  0
 15 43  1  0
 17 44  1  0
 18 45  1  0
 18 46  1  0
 19 47  1  0
 21 48  1  0
 21 49  1  0
 21 50  1  0
 22 51  1  0
 22 52  1  0
 22 53  1  0
 23 54  1  0
 23 55  1  0
 23 56  1  0
 24 57  1  0
 24 58  1  0
 25 59  1  0
 27 60  1  0
 27 61  1  0
 28 62  1  0
 28 63  1  0
 29 64  1  0
 31 65  1  0
 31 66  1  0
 31 67  1  0
 32 68  1  0
 32 69  1  0
 32 70  1  0
 33 71  1  0
 33 72  1  0
 33 73  1  0
M  END
$$$$
