
     RDKit          3D

 36 36  0  0  0  0  0  0  0  0999 V2000
    6.2864    0.4252    1.4449 C   0  0  0  0  0  0  0  0  0  0  0  0
    5.1261    0.6091    0.6431 O   0  0  0  0  0  0  0  0  0  0  0  0
    4.6208   -0.3930   -0.1902 C   0  0  0  0  0  0  0  0  0  0  0  0
    5.1780   -1.5232   -0.2492 O   0  0  0  0  0  0  0  0  0  0  0  0
    3.3783   -0.1346   -0.9818 C   0  0  0  0  0  0  0  0  0  0  0  0
    2.1355   -0.4668   -0.1507 C   0  0  0  0  0  0  0  0  0  0  0  0
    0.8520   -0.1886   -0.9474 C   0  0  0  0  0  0  0  0  0  0  0  0
   -0.4168   -0.6332   -0.2026 C   0  0  0  0  0  0  0  0  0  0  0  0
   -0.7608    0.2870    0.9813 C   0  0  0  0  0  0  0  0  0  0  0  0
   -2.0508   -0.1423    1.6959 C   0  0  0  0  0  0  0  0  0  0  0  0
   -3.2731    0.0757    0.8405 C   0  0  0  0  0  0  0  0  0  0  0  0
   -3.8050    1.3668    0.6841 C   0  0  0  0  0  0  0  0  0  0  0  0
   -4.9259    1.5737   -0.1259 C   0  0  0  0  0  0  0  0  0  0  0  0
   -5.5205    0.4960   -0.7877 C   0  0  0  0  0  0  0  0  0  0  0  0
   -4.9944   -0.7905   -0.6417 C   0  0  0  0  0  0  0  0  0  0  0  0
   -3.8740   -1.0021    0.1678 C   0  0  0  0  0  0  0  0  0  0  0  0
    6.4883    1.3563    2.0130 H   0  0  0  0  0  0  0  0  0  0  0  0
    6.1244   -0.4065    2.1628 H   0  0  0  0  0  0  0  0  0  0  0  0
    7.1623    0.1997    0.8002 H   0  0  0  0  0  0  0  0  0  0  0  0
    3.3564    0.9359   -1.2808 H   0  0  0  0  0  0  0  0  0  0  0  0
    3.3935   -0.7529   -1.9060 H   0  0  0  0  0  0  0  0  0  0  0  0
    2.1465    0.1518    0.7720 H   0  0  0  0  0  0  0  0  0  0  0  0
    2.1661   -1.5402    0.1403 H   0  0  0  0  0  0  0  0  0  0  0  0
    0.8988   -0.7490   -1.9071 H   0  0  0  0  0  0  0  0  0  0  0  0
    0.7852    0.8940   -1.1934 H   0  0  0  0  0  0  0  0  0  0  0  0
   -0.3003   -1.6810    0.1510 H   0  0  0  0  0  0  0  0  0  0  0  0
   -1.2562   -0.6152   -0.9304 H   0  0  0  0  0  0  0  0  0  0  0  0
   -0.8587    1.3376    0.6300 H   0  0  0  0  0  0  0  0  0  0  0  0
    0.0618    0.2538    1.7259 H   0  0  0  0  0  0  0  0  0  0  0  0
   -2.1560    0.4522    2.6295 H   0  0  0  0  0  0  0  0  0  0  0  0
   -1.9719   -1.2078    2.0053 H   0  0  0  0  0  0  0  0  0  0  0  0
   -3.3504    2.2108    1.1881 H   0  0  0  0  0  0  0  0  0  0  0  0
   -5.3323    2.5701   -0.2420 H   0  0  0  0  0  0  0  0  0  0  0  0
   -6.3874    0.6580   -1.4152 H   0  0  0  0  0  0  0  0  0  0  0  0
   -5.4536   -1.6238   -1.1576 H   0  0  0  0  0  0  0  0  0  0  0  0
   -3.4724   -2.0031    0.2658 H   0  0  0  0  0  0  0  0  0  0  0  0
  1  2  1  0
  2  3  1  0
  3  4  2  0
  3  5  1  0
  5  6  1  0
  6  7  1  0
  7  8  1  0
  8  9  1  0
  9 10  1  0
 10 11  1  0
 11 12  2  0
 12 13  1  0
 13 14  2  0
 14 15  1  0
 15 16  2  0
 16 11  1  0
  1 17  1  0
  1 18  1  0
  1 19  1  0
  5 20  1  0
  5 21  1  0
  6 22  1  0
  6 23  1  0
  7 24  1  0
  7 25  1  0
  8 26  1  0
  8 27  1  0
  9 28  1  0
  9 29  1  0
 10 30  1  0
 10 31  1  0
 12 32  1  0
 13 33  1  0
 14 34  1  0
 15 35  1  0
 16 36  1  0
M  END
$$$$
