
     RDKit          3D

 49 53  0  0  0  0  0  0  0  0999 V2000
    1.7005    2.3463    0.0728 C   0  0  0  0  0  0  0  0  0  0  0  0
    0.9906    1.3183    0.7276 O   0  0  0  0  0  0  0  0  0  0  0  0
    0.6959    0.2558   -0.1667 C   0  0  1  0  0  0  0  0  0  0  0  0
    1.4311   -1.0056    0.3224 C   0  0  2  0  0  0  0  0  0  0  0  0
    2.8375   -0.7774    0.2368 O   0  0  0  0  0  0  0  0  0  0  0  0
    3.7935   -1.5994    0.8466 C   0  0  0  0  0  0  0  0  0  0  0  0
    3.4284   -2.5990    1.5253 O   0  0  0  0  0  0  0  0  0  0  0  0
    5.2316   -1.2892    0.6948 C   0  0  0  0  0  0  0  0  0  0  0  0
    5.6409   -0.1724   -0.0568 C   0  0  0  0  0  0  0  0  0  0  0  0
    7.0000    0.1234   -0.2012 C   0  0  0  0  0  0  0  0  0  0  0  0
    7.9625   -0.6899    0.4011 C   0  0  0  0  0  0  0  0  0  0  0  0
    7.5681   -1.8013    1.1495 C   0  0  0  0  0  0  0  0  0  0  0  0
    6.2104   -2.1019    1.2974 C   0  0  0  0  0  0  0  0  0  0  0  0
    1.0565   -2.2300   -0.5280 C   0  0  0  0  0  0  0  0  0  0  0  0
    0.1195   -3.0498    0.1394 O   0  0  0  0  0  0  0  0  0  0  0  0
   -0.3481   -2.3607   -0.9964 C   0  0  0  0  0  0  0  0  0  0  0  0
   -1.3661   -1.2624   -0.6450 C   0  0  0  0  0  0  0  0  0  0  0  0
   -0.8357    0.0607   -0.2196 C   0  0  2  0  0  0  0  0  0  0  0  0
   -1.7444    1.2835   -0.4236 C   0  0  0  0  0  0  0  0  0  0  0  0
   -3.1142    0.9608   -0.1930 O   0  0  0  0  0  0  0  0  0  0  0  0
   -4.1466    1.8949   -0.3255 C   0  0  0  0  0  0  0  0  0  0  0  0
   -3.8835    3.0852   -0.6527 O   0  0  0  0  0  0  0  0  0  0  0  0
   -5.5458    1.4820   -0.0814 C   0  0  0  0  0  0  0  0  0  0  0  0
   -6.6003    2.4068   -0.2016 C   0  0  0  0  0  0  0  0  0  0  0  0
   -7.9204    2.0079    0.0304 C   0  0  0  0  0  0  0  0  0  0  0  0
   -8.2017    0.6861    0.3833 C   0  0  0  0  0  0  0  0  0  0  0  0
   -7.1633   -0.2399    0.5052 C   0  0  0  0  0  0  0  0  0  0  0  0
   -5.8412    0.1532    0.2746 C   0  0  0  0  0  0  0  0  0  0  0  0
   -1.3325   -0.8697    0.7172 O   0  0  0  0  0  0  0  0  0  0  0  0
    1.0900    2.7917   -0.7438 H   0  0  0  0  0  0  0  0  0  0  0  0
    2.6699    1.9720   -0.3244 H   0  0  0  0  0  0  0  0  0  0  0  0
    1.9218    3.1479    0.8067 H   0  0  0  0  0  0  0  0  0  0  0  0
    1.0220    0.4496   -1.2193 H   0  0  0  0  0  0  0  0  0  0  0  0
    1.1639   -1.1838    1.3896 H   0  0  0  0  0  0  0  0  0  0  0  0
    4.9133    0.4726   -0.5331 H   0  0  0  0  0  0  0  0  0  0  0  0
    7.3069    0.9845   -0.7809 H   0  0  0  0  0  0  0  0  0  0  0  0
    9.0139   -0.4590    0.2880 H   0  0  0  0  0  0  0  0  0  0  0  0
    8.3150   -2.4308    1.6157 H   0  0  0  0  0  0  0  0  0  0  0  0
    5.9281   -2.9685    1.8821 H   0  0  0  0  0  0  0  0  0  0  0  0
    1.8350   -2.8361   -1.0378 H   0  0  0  0  0  0  0  0  0  0  0  0
   -0.5445   -3.0479   -1.8453 H   0  0  0  0  0  0  0  0  0  0  0  0
   -2.4070   -1.3426   -1.0222 H   0  0  0  0  0  0  0  0  0  0  0  0
   -1.4414    2.0893    0.2784 H   0  0  0  0  0  0  0  0  0  0  0  0
   -1.6176    1.6506   -1.4646 H   0  0  0  0  0  0  0  0  0  0  0  0
   -6.4061    3.4367   -0.4741 H   0  0  0  0  0  0  0  0  0  0  0  0
   -8.7261    2.7246   -0.0639 H   0  0  0  0  0  0  0  0  0  0  0  0
   -9.2242    0.3795    0.5623 H   0  0  0  0  0  0  0  0  0  0  0  0
   -7.3826   -1.2640    0.7786 H   0  0  0  0  0  0  0  0  0  0  0  0
   -5.0531   -0.5826    0.3746 H   0  0  0  0  0  0  0  0  0  0  0  0
  1  2  1  0
  2  3  1  0
  3  4  1  0
  4  5  1  0
  5  6  1  0
  6  7  2  0
  6  8  1  0
  8  9  2  0
  9 10  1  0
 10 11  2  0
 11 12  1  0
 12 13  2  0
  4 14  1  0
 14 15  1  0
 15 16  1  0
 16 17  1  0
 17 18  1  0
 18 19  1  6
 19 20  1  0
 20 21  1  0
 21 22  2  0
 21 23  1  0
 23 24  2  0
 24 25  1  0
 25 26  2  0
 26 27  1  0
 27 28  2  0
 18 29  1  0
 18  3  1  0
 28 23  1  0
 13  8  1  0
 16 14  1  0
 29 17  1  0
  1 30  1  0
  1 31  1  0
  1 32  1  0
  3 33  1  6
  4 34  1  1
  9 35  1  0
 10 36  1  0
 11 37  1  0
 12 38  1  0
 13 39  1  0
 14 40  1  0
 16 41  1  0
 17 42  1  0
 19 43  1  0
 19 44  1  0
 24 45  1  0
 25 46  1  0
 26 47  1  0
 27 48  1  0
 28 49  1  0
M  END
$$$$
