
     RDKit          3D

 47 50  0  0  0  0  0  0  0  0999 V2000
    1.8875    4.3815   -1.2056 C   0  0  0  0  0  0  0  0  0  0  0  0
    2.7620    3.2569   -1.2118 O   0  0  0  0  0  0  0  0  0  0  0  0
    2.3892    1.9494   -0.8562 C   0  0  0  0  0  0  0  0  0  0  0  0
    1.0884    1.6309   -0.4330 C   0  0  0  0  0  0  0  0  0  0  0  0
    0.7147    0.3028   -0.1159 C   0  0  0  0  0  0  0  0  0  0  0  0
    1.7465   -0.6739   -0.0318 C   0  0  0  0  0  0  0  0  0  0  0  0
    3.0355   -0.3542   -0.5119 C   0  0  0  0  0  0  0  0  0  0  0  0
    3.3550    0.9465   -0.9306 C   0  0  0  0  0  0  0  0  0  0  0  0
    4.6326    1.2884   -1.4053 O   0  0  0  0  0  0  0  0  0  0  0  0
    5.7143    0.3749   -1.5529 C   0  0  0  0  0  0  0  0  0  0  0  0
    1.4765   -1.9408    0.5411 C   0  0  0  0  0  0  0  0  0  0  0  0
    2.5036   -2.8421    0.8458 O   0  0  0  0  0  0  0  0  0  0  0  0
    0.1597   -2.2871    0.9026 C   0  0  0  0  0  0  0  0  0  0  0  0
   -0.8626   -1.3177    0.8217 C   0  0  0  0  0  0  0  0  0  0  0  0
   -0.6298   -0.0557    0.2165 C   0  0  0  0  0  0  0  0  0  0  0  0
   -1.7643    0.7564   -0.0962 C   0  0  0  0  0  0  0  0  0  0  0  0
   -1.6269    1.7884   -1.0450 O   0  0  0  0  0  0  0  0  0  0  0  0
   -2.6738    2.3472   -1.8360 C   0  0  0  0  0  0  0  0  0  0  0  0
   -3.0190    0.4670    0.4921 C   0  0  0  0  0  0  0  0  0  0  0  0
   -4.0840    1.3689    0.3331 O   0  0  0  0  0  0  0  0  0  0  0  0
   -5.3905    1.1939    0.8708 C   0  0  0  0  0  0  0  0  0  0  0  0
   -3.1769   -0.7092    1.2368 C   0  0  0  0  0  0  0  0  0  0  0  0
   -2.1282   -1.6169    1.3625 C   0  0  0  0  0  0  0  0  0  0  0  0
   -2.3416   -2.8704    2.1102 C   0  0  0  0  0  0  0  0  0  0  0  0
   -1.3927   -3.8020    2.1347 C   0  0  0  0  0  0  0  0  0  0  0  0
   -0.1692   -3.6136    1.4009 N   0  0  0  0  0  0  0  0  0  0  0  0
    0.5358   -4.7862    0.9545 C   0  0  0  0  0  0  0  0  0  0  0  0
    0.4047   -5.8866    1.5547 O   0  0  0  0  0  0  0  0  0  0  0  0
    1.5244    4.5765   -0.1742 H   0  0  0  0  0  0  0  0  0  0  0  0
    2.4426    5.2747   -1.5594 H   0  0  0  0  0  0  0  0  0  0  0  0
    1.0297    4.2023   -1.8885 H   0  0  0  0  0  0  0  0  0  0  0  0
    0.4028    2.4448   -0.2828 H   0  0  0  0  0  0  0  0  0  0  0  0
    3.7968   -1.1119   -0.5875 H   0  0  0  0  0  0  0  0  0  0  0  0
    5.4468   -0.4156   -2.2840 H   0  0  0  0  0  0  0  0  0  0  0  0
    5.9698   -0.0786   -0.5723 H   0  0  0  0  0  0  0  0  0  0  0  0
    6.5990    0.9248   -1.9322 H   0  0  0  0  0  0  0  0  0  0  0  0
    3.4894   -2.6223    0.8305 H   0  0  0  0  0  0  0  0  0  0  0  0
   -2.2239    2.8888   -2.6906 H   0  0  0  0  0  0  0  0  0  0  0  0
   -3.2599    3.0761   -1.2407 H   0  0  0  0  0  0  0  0  0  0  0  0
   -3.3309    1.5454   -2.2385 H   0  0  0  0  0  0  0  0  0  0  0  0
   -6.0173    2.0637    0.5867 H   0  0  0  0  0  0  0  0  0  0  0  0
   -5.3436    1.1372    1.9786 H   0  0  0  0  0  0  0  0  0  0  0  0
   -5.8539    0.2734    0.4580 H   0  0  0  0  0  0  0  0  0  0  0  0
   -4.1291   -0.9461    1.6913 H   0  0  0  0  0  0  0  0  0  0  0  0
   -3.2788   -3.0504    2.6238 H   0  0  0  0  0  0  0  0  0  0  0  0
   -1.5850   -4.7332    2.6537 H   0  0  0  0  0  0  0  0  0  0  0  0
    1.1747   -4.7460    0.0824 H   0  0  0  0  0  0  0  0  0  0  0  0
  1  2  1  0
  2  3  1  0
  3  4  2  0
  4  5  1  0
  5  6  2  0
  6  7  1  0
  7  8  2  0
  8  9  1  0
  9 10  1  0
  6 11  1  0
 11 12  1  0
 11 13  2  0
 13 14  1  0
 14 15  2  0
 15 16  1  0
 16 17  1  0
 17 18  1  0
 16 19  2  0
 19 20  1  0
 20 21  1  0
 19 22  1  0
 22 23  2  0
 23 24  1  0
 24 25  2  0
 25 26  1  0
 26 27  1  0
 27 28  2  0
  8  3  1  0
 26 13  1  0
 15  5  1  0
 23 14  1  0
  1 29  1  0
  1 30  1  0
  1 31  1  0
  4 32  1  0
  7 33  1  0
 10 34  1  0
 10 35  1  0
 10 36  1  0
 12 37  1  0
 18 38  1  0
 18 39  1  0
 18 40  1  0
 21 41  1  0
 21 42  1  0
 21 43  1  0
 22 44  1  0
 24 45  1  0
 25 46  1  0
 27 47  1  0
M  END
$$$$
