
     RDKit          3D

 65 68  0  0  0  0  0  0  0  0999 V2000
    0.2005   -4.4076   -0.9663 C   0  0  0  0  0  0  0  0  0  0  0  0
    0.3961   -3.0741   -0.5081 O   0  0  0  0  0  0  0  0  0  0  0  0
   -0.6303   -2.2148   -0.0780 C   0  0  0  0  0  0  0  0  0  0  0  0
   -1.9742   -2.6164   -0.0609 C   0  0  0  0  0  0  0  0  0  0  0  0
   -2.9931   -1.7408    0.3579 C   0  0  0  0  0  0  0  0  0  0  0  0
   -4.3291   -2.1702    0.4022 O   0  0  0  0  0  0  0  0  0  0  0  0
   -4.7890   -3.4678    0.0369 C   0  0  0  0  0  0  0  0  0  0  0  0
   -2.6540   -0.4186    0.7444 C   0  0  0  0  0  0  0  0  0  0  0  0
   -1.2993   -0.0259    0.7638 C   0  0  0  0  0  0  0  0  0  0  0  0
   -0.2899   -0.9242    0.3522 C   0  0  0  0  0  0  0  0  0  0  0  0
    1.1415   -0.5209    0.3435 C   0  0  0  0  0  0  0  0  0  0  0  0
    1.9526   -0.8299    1.4536 C   0  0  0  0  0  0  0  0  0  0  0  0
    1.3920   -1.5628    2.6474 C   0  0  0  0  0  0  0  0  0  0  0  0
    3.2993   -0.4567    1.4524 C   0  0  0  0  0  0  0  0  0  0  0  0
    3.8683    0.2344    0.3695 C   0  0  0  0  0  0  0  0  0  0  0  0
    3.0650    0.5617   -0.7534 C   0  0  0  0  0  0  0  0  0  0  0  0
    1.6915    0.1768   -0.7621 C   0  0  0  0  0  0  0  0  0  0  0  0
    0.8919    0.5025   -1.8776 C   0  0  0  0  0  0  0  0  0  0  0  0
    1.4251    1.1907   -2.9597 C   0  0  0  0  0  0  0  0  0  0  0  0
    2.7612    1.5696   -2.9608 C   0  0  0  0  0  0  0  0  0  0  0  0
    3.5972    1.2658   -1.8707 C   0  0  0  0  0  0  0  0  0  0  0  0
    4.9490    1.6531   -1.8795 O   0  0  0  0  0  0  0  0  0  0  0  0
    5.5926    2.3572   -2.9371 C   0  0  0  0  0  0  0  0  0  0  0  0
    5.2254    0.6038    0.3918 O   0  0  0  0  0  0  0  0  0  0  0  0
    6.1309    0.3434    1.4602 C   0  0  0  0  0  0  0  0  0  0  0  0
   -0.9700    1.3366    1.3405 C   0  0  0  0  0  0  0  0  0  0  0  0
   -1.9346    2.4410    0.8268 C   0  0  1  0  0  0  0  0  0  0  0  0
   -3.3001    1.9508    0.4788 N   0  0  0  0  0  0  0  0  0  0  0  0
   -3.6482    0.6721    1.1538 C   0  0  1  0  0  0  0  0  0  0  0  0
   -5.1487    0.3647    1.0065 C   0  0  0  0  0  0  0  0  0  0  0  0
   -3.4876    1.9009   -0.9873 C   0  0  0  0  0  0  0  0  0  0  0  0
   -2.0592    3.5645    1.8577 C   0  0  0  0  0  0  0  0  0  0  0  0
   -0.4541   -4.4111   -1.8633 H   0  0  0  0  0  0  0  0  0  0  0  0
    1.1826   -4.8429   -1.2423 H   0  0  0  0  0  0  0  0  0  0  0  0
   -0.2479   -5.0263   -0.1606 H   0  0  0  0  0  0  0  0  0  0  0  0
   -2.2269   -3.6177   -0.3732 H   0  0  0  0  0  0  0  0  0  0  0  0
   -4.3188   -4.2370    0.6852 H   0  0  0  0  0  0  0  0  0  0  0  0
   -4.5580   -3.6687   -1.0305 H   0  0  0  0  0  0  0  0  0  0  0  0
   -5.8885   -3.5130    0.1751 H   0  0  0  0  0  0  0  0  0  0  0  0
    1.0682   -2.5805    2.3447 H   0  0  0  0  0  0  0  0  0  0  0  0
    0.5214   -1.0083    3.0565 H   0  0  0  0  0  0  0  0  0  0  0  0
    2.1418   -1.6661    3.4602 H   0  0  0  0  0  0  0  0  0  0  0  0
    3.9067   -0.7086    2.3109 H   0  0  0  0  0  0  0  0  0  0  0  0
   -0.1543    0.2300   -1.9256 H   0  0  0  0  0  0  0  0  0  0  0  0
    0.7959    1.4329   -3.8066 H   0  0  0  0  0  0  0  0  0  0  0  0
    3.1366    2.1031   -3.8228 H   0  0  0  0  0  0  0  0  0  0  0  0
    5.5558    1.7595   -3.8722 H   0  0  0  0  0  0  0  0  0  0  0  0
    6.6551    2.5249   -2.6659 H   0  0  0  0  0  0  0  0  0  0  0  0
    5.1062    3.3435   -3.0912 H   0  0  0  0  0  0  0  0  0  0  0  0
    5.7791    0.8400    2.3892 H   0  0  0  0  0  0  0  0  0  0  0  0
    7.1276    0.7524    1.1965 H   0  0  0  0  0  0  0  0  0  0  0  0
    6.2286   -0.7510    1.6209 H   0  0  0  0  0  0  0  0  0  0  0  0
    0.0692    1.6528    1.1138 H   0  0  0  0  0  0  0  0  0  0  0  0
   -1.0375    1.2473    2.4471 H   0  0  0  0  0  0  0  0  0  0  0  0
   -1.4414    2.8993   -0.0626 H   0  0  0  0  0  0  0  0  0  0  0  0
   -3.5103    0.8220    2.2488 H   0  0  0  0  0  0  0  0  0  0  0  0
   -5.4587   -0.4022    1.7480 H   0  0  0  0  0  0  0  0  0  0  0  0
   -5.7388    1.2823    1.2164 H   0  0  0  0  0  0  0  0  0  0  0  0
   -5.4025    0.0145   -0.0149 H   0  0  0  0  0  0  0  0  0  0  0  0
   -3.2611    2.8920   -1.4363 H   0  0  0  0  0  0  0  0  0  0  0  0
   -2.8293    1.1378   -1.4561 H   0  0  0  0  0  0  0  0  0  0  0  0
   -4.5440    1.6912   -1.2466 H   0  0  0  0  0  0  0  0  0  0  0  0
   -2.6790    4.3882    1.4437 H   0  0  0  0  0  0  0  0  0  0  0  0
   -2.5405    3.1898    2.7862 H   0  0  0  0  0  0  0  0  0  0  0  0
   -1.0559    3.9712    2.1080 H   0  0  0  0  0  0  0  0  0  0  0  0
  1  2  1  0
  2  3  1  0
  3  4  2  0
  4  5  1  0
  5  6  1  0
  6  7  1  0
  5  8  2  0
  8  9  1  0
  9 10  2  0
 10 11  1  0
 11 12  2  0
 12 13  1  0
 12 14  1  0
 14 15  2  0
 15 16  1  0
 16 17  2  0
 17 18  1  0
 18 19  2  0
 19 20  1  0
 20 21  2  0
 21 22  1  0
 22 23  1  0
 15 24  1  0
 24 25  1  0
  9 26  1  0
 26 27  1  0
 27 28  1  0
 28 29  1  0
 29 30  1  0
 28 31  1  0
 27 32  1  0
 10  3  1  0
 17 11  1  0
 29  8  1  0
 21 16  1  0
  1 33  1  0
  1 34  1  0
  1 35  1  0
  4 36  1  0
  7 37  1  0
  7 38  1  0
  7 39  1  0
 13 40  1  0
 13 41  1  0
 13 42  1  0
 14 43  1  0
 18 44  1  0
 19 45  1  0
 20 46  1  0
 23 47  1  0
 23 48  1  0
 23 49  1  0
 25 50  1  0
 25 51  1  0
 25 52  1  0
 26 53  1  0
 26 54  1  0
 27 55  1  6
 29 56  1  1
 30 57  1  0
 30 58  1  0
 30 59  1  0
 31 60  1  0
 31 61  1  0
 31 62  1  0
 32 63  1  0
 32 64  1  0
 32 65  1  0
M  END
$$$$
