
     RDKit          3D

 40 42  0  0  0  0  0  0  0  0999 V2000
   -1.4697    1.3424    2.2852 O   0  0  0  0  0  0  0  0  0  0  0  0
   -1.2332    1.7825    0.9728 C   0  0  0  0  0  0  0  0  0  0  0  0
    0.2965    1.7333    0.6599 C   0  0  0  0  0  0  0  0  0  0  0  0
    0.7224    0.5424   -0.2536 C   0  0  0  0  0  0  0  0  0  0  0  0
   -0.1914    0.5695   -1.4826 C   0  0  0  0  0  0  0  0  0  0  0  0
   -1.4610   -0.0589   -0.9300 C   0  0  0  0  0  0  0  0  0  0  0  0
   -2.0966    0.9659    0.0101 C   0  0  0  0  0  0  0  0  0  0  0  0
   -3.4309    1.1052    0.0409 C   0  0  0  0  0  0  0  0  0  0  0  0
   -0.9402   -1.3169   -0.1735 C   0  0  0  0  0  0  0  0  0  0  0  0
    0.4096   -0.8079    0.4386 C   0  0  0  0  0  0  0  0  0  0  0  0
    1.6721   -1.6704    0.2874 C   0  0  0  0  0  0  0  0  0  0  0  0
    2.8067   -0.6663    0.2022 C   0  0  0  0  0  0  0  0  0  0  0  0
    2.2382    0.4884   -0.6185 C   0  0  0  0  0  0  0  0  0  0  0  0
    3.0403    1.7815   -0.4115 C   0  0  0  0  0  0  0  0  0  0  0  0
   -0.7872   -2.4896   -1.1790 C   0  0  0  0  0  0  0  0  0  0  0  0
   -1.9101   -1.8039    0.9316 C   0  0  0  0  0  0  0  0  0  0  0  0
   -1.1821    2.0740    2.8919 H   0  0  0  0  0  0  0  0  0  0  0  0
   -1.5593    2.8465    0.8843 H   0  0  0  0  0  0  0  0  0  0  0  0
    0.8781    1.7084    1.6076 H   0  0  0  0  0  0  0  0  0  0  0  0
    0.5606    2.6863    0.1520 H   0  0  0  0  0  0  0  0  0  0  0  0
    0.2078   -0.0396   -2.3212 H   0  0  0  0  0  0  0  0  0  0  0  0
   -0.3616    1.5990   -1.8721 H   0  0  0  0  0  0  0  0  0  0  0  0
   -2.1534   -0.3218   -1.7618 H   0  0  0  0  0  0  0  0  0  0  0  0
   -3.9001    1.8087    0.7220 H   0  0  0  0  0  0  0  0  0  0  0  0
   -4.0701    0.5150   -0.6084 H   0  0  0  0  0  0  0  0  0  0  0  0
    0.2870   -0.6410    1.5339 H   0  0  0  0  0  0  0  0  0  0  0  0
    1.8029   -2.3534    1.1546 H   0  0  0  0  0  0  0  0  0  0  0  0
    1.6891   -2.2660   -0.6460 H   0  0  0  0  0  0  0  0  0  0  0  0
    3.0723   -0.3257    1.2283 H   0  0  0  0  0  0  0  0  0  0  0  0
    3.7044   -1.1095   -0.2821 H   0  0  0  0  0  0  0  0  0  0  0  0
    2.3568    0.2098   -1.6901 H   0  0  0  0  0  0  0  0  0  0  0  0
    4.0934    1.6221   -0.7273 H   0  0  0  0  0  0  0  0  0  0  0  0
    3.0429    2.0922    0.6543 H   0  0  0  0  0  0  0  0  0  0  0  0
    2.6164    2.5959   -1.0358 H   0  0  0  0  0  0  0  0  0  0  0  0
   -0.1182   -2.2370   -2.0261 H   0  0  0  0  0  0  0  0  0  0  0  0
   -1.7760   -2.7577   -1.6101 H   0  0  0  0  0  0  0  0  0  0  0  0
   -0.3877   -3.3939   -0.6714 H   0  0  0  0  0  0  0  0  0  0  0  0
   -2.0402   -1.0568    1.7382 H   0  0  0  0  0  0  0  0  0  0  0  0
   -2.9103   -2.0234    0.4998 H   0  0  0  0  0  0  0  0  0  0  0  0
   -1.5184   -2.7295    1.4057 H   0  0  0  0  0  0  0  0  0  0  0  0
  1  2  1  0
  2  3  1  0
  3  4  1  0
  4  5  1  0
  5  6  1  0
  6  7  1  0
  7  8  2  3
  6  9  1  0
  9 10  1  0
 10 11  1  0
 11 12  1  0
 12 13  1  0
 13 14  1  0
  9 15  1  0
  9 16  1  0
  7  2  1  0
 10  4  1  0
 13  4  1  0
  1 17  1  0
  2 18  1  0
  3 19  1  0
  3 20  1  0
  5 21  1  0
  5 22  1  0
  6 23  1  0
  8 24  1  0
  8 25  1  0
 10 26  1  0
 11 27  1  0
 11 28  1  0
 12 29  1  0
 12 30  1  0
 13 31  1  0
 14 32  1  0
 14 33  1  0
 14 34  1  0
 15 35  1  0
 15 36  1  0
 15 37  1  0
 16 38  1  0
 16 39  1  0
 16 40  1  0
M  END
$$$$
