
     RDKit          3D

 54 53  0  0  0  0  0  0  0  0999 V2000
    8.6178   -0.3808    0.0911 C   0  0  0  0  0  0  0  0  0  0  0  0
    7.8050    0.7096    0.7887 C   0  0  0  0  0  0  0  0  0  0  0  0
    6.4325    0.2129    1.2683 C   0  0  0  0  0  0  0  0  0  0  0  0
    5.4621   -0.0517    0.1076 C   0  0  0  0  0  0  0  0  0  0  0  0
    4.0701   -0.4265    0.6306 C   0  0  0  0  0  0  0  0  0  0  0  0
    3.1020   -0.7005   -0.5264 C   0  0  0  0  0  0  0  0  0  0  0  0
    1.7073   -1.0716   -0.0010 C   0  0  0  0  0  0  0  0  0  0  0  0
    0.7282   -1.3980   -1.1383 C   0  0  0  0  0  0  0  0  0  0  0  0
    0.3914   -0.1769   -1.9594 C   0  0  0  0  0  0  0  0  0  0  0  0
   -0.5671    0.7148   -1.6463 C   0  0  0  0  0  0  0  0  0  0  0  0
   -1.5119    0.5809   -0.4793 C   0  0  0  0  0  0  0  0  0  0  0  0
   -2.7456   -0.2431   -0.8737 C   0  0  0  0  0  0  0  0  0  0  0  0
   -3.6595   -0.5449    0.3233 C   0  0  0  0  0  0  0  0  0  0  0  0
   -4.3327    0.7173    0.8891 C   0  0  0  0  0  0  0  0  0  0  0  0
   -5.4684    0.3732    1.8751 C   0  0  0  0  0  0  0  0  0  0  0  0
   -6.8801    0.6185    1.3104 C   0  0  0  0  0  0  0  0  0  0  0  0
   -7.3009   -0.3755    0.2116 C   0  0  0  0  0  0  0  0  0  0  0  0
   -6.8287    0.0284   -1.1538 C   0  0  0  0  0  0  0  0  0  0  0  0
   -7.0920    1.1762   -1.6034 O   0  0  0  0  0  0  0  0  0  0  0  0
   -6.1449   -0.8851   -1.9496 O   0  0  0  0  0  0  0  0  0  0  0  0
    9.6378    0.0012   -0.1247 H   0  0  0  0  0  0  0  0  0  0  0  0
    8.1467   -0.6678   -0.8716 H   0  0  0  0  0  0  0  0  0  0  0  0
    8.7068   -1.2764    0.7421 H   0  0  0  0  0  0  0  0  0  0  0  0
    7.6810    1.5773    0.1049 H   0  0  0  0  0  0  0  0  0  0  0  0
    8.3801    1.0593    1.6734 H   0  0  0  0  0  0  0  0  0  0  0  0
    6.5575   -0.7102    1.8760 H   0  0  0  0  0  0  0  0  0  0  0  0
    5.9975    0.9947    1.9291 H   0  0  0  0  0  0  0  0  0  0  0  0
    5.3832    0.8606   -0.5238 H   0  0  0  0  0  0  0  0  0  0  0  0
    5.8468   -0.8850   -0.5183 H   0  0  0  0  0  0  0  0  0  0  0  0
    4.1493   -1.3351    1.2676 H   0  0  0  0  0  0  0  0  0  0  0  0
    3.6732    0.4070    1.2514 H   0  0  0  0  0  0  0  0  0  0  0  0
    3.4966   -1.5359   -1.1458 H   0  0  0  0  0  0  0  0  0  0  0  0
    3.0297    0.2082   -1.1631 H   0  0  0  0  0  0  0  0  0  0  0  0
    1.7934   -1.9682    0.6510 H   0  0  0  0  0  0  0  0  0  0  0  0
    1.3085   -0.2399    0.6186 H   0  0  0  0  0  0  0  0  0  0  0  0
    1.1830   -2.1625   -1.8047 H   0  0  0  0  0  0  0  0  0  0  0  0
   -0.1922   -1.8548   -0.7189 H   0  0  0  0  0  0  0  0  0  0  0  0
    0.9839    0.0036   -2.8517 H   0  0  0  0  0  0  0  0  0  0  0  0
   -0.7008    1.5709   -2.3015 H   0  0  0  0  0  0  0  0  0  0  0  0
   -1.8344    1.6020   -0.1852 H   0  0  0  0  0  0  0  0  0  0  0  0
   -1.0031    0.1305    0.3977 H   0  0  0  0  0  0  0  0  0  0  0  0
   -3.3212    0.2949   -1.6590 H   0  0  0  0  0  0  0  0  0  0  0  0
   -2.4197   -1.2127   -1.3084 H   0  0  0  0  0  0  0  0  0  0  0  0
   -3.0741   -1.0462    1.1252 H   0  0  0  0  0  0  0  0  0  0  0  0
   -4.4358   -1.2639   -0.0105 H   0  0  0  0  0  0  0  0  0  0  0  0
   -3.5633    1.3074    1.4328 H   0  0  0  0  0  0  0  0  0  0  0  0
   -4.7070    1.3623    0.0653 H   0  0  0  0  0  0  0  0  0  0  0  0
   -5.3558    1.0244    2.7699 H   0  0  0  0  0  0  0  0  0  0  0  0
   -5.3845   -0.6730    2.2441 H   0  0  0  0  0  0  0  0  0  0  0  0
   -7.5948    0.5050    2.1548 H   0  0  0  0  0  0  0  0  0  0  0  0
   -6.9772    1.6692    0.9592 H   0  0  0  0  0  0  0  0  0  0  0  0
   -6.9372   -1.3969    0.4558 H   0  0  0  0  0  0  0  0  0  0  0  0
   -8.4107   -0.4230    0.1812 H   0  0  0  0  0  0  0  0  0  0  0  0
   -5.8277   -0.6309   -2.8774 H   0  0  0  0  0  0  0  0  0  0  0  0
  1  2  1  0
  2  3  1  0
  3  4  1  0
  4  5  1  0
  5  6  1  0
  6  7  1  0
  7  8  1  0
  8  9  1  0
  9 10  2  0
 10 11  1  0
 11 12  1  0
 12 13  1  0
 13 14  1  0
 14 15  1  0
 15 16  1  0
 16 17  1  0
 17 18  1  0
 18 19  2  0
 18 20  1  0
  1 21  1  0
  1 22  1  0
  1 23  1  0
  2 24  1  0
  2 25  1  0
  3 26  1  0
  3 27  1  0
  4 28  1  0
  4 29  1  0
  5 30  1  0
  5 31  1  0
  6 32  1  0
  6 33  1  0
  7 34  1  0
  7 35  1  0
  8 36  1  0
  8 37  1  0
  9 38  1  0
 10 39  1  0
 11 40  1  0
 11 41  1  0
 12 42  1  0
 12 43  1  0
 13 44  1  0
 13 45  1  0
 14 46  1  0
 14 47  1  0
 15 48  1  0
 15 49  1  0
 16 50  1  0
 16 51  1  0
 17 52  1  0
 17 53  1  0
 20 54  1  0
M  END
$$$$
