
     RDKit          3D

110112  0  0  0  0  0  0  0  0999 V2000
  -14.7489    1.5019    1.3131 C   0  0  0  0  0  0  0  0  0  0  0  0
  -13.5956    0.5049    1.2460 C   0  0  0  0  0  0  0  0  0  0  0  0
  -13.0926    0.3416   -0.1959 C   0  0  0  0  0  0  0  0  0  0  0  0
  -12.0496   -0.7810   -0.3466 C   0  0  0  0  0  0  0  0  0  0  0  0
  -10.7738   -0.6087    0.4981 C   0  0  0  0  0  0  0  0  0  0  0  0
   -9.9842    0.6637    0.1433 C   0  0  0  0  0  0  0  0  0  0  0  0
   -8.6779    0.8044    0.9519 C   0  0  1  0  0  0  0  0  0  0  0  0
   -7.6348   -0.3151    0.6959 C   0  0  0  0  0  0  0  0  0  0  0  0
   -7.2962   -0.6115   -0.7825 C   0  0  0  0  0  0  0  0  0  0  0  0
   -6.7342    0.5754   -1.5944 C   0  0  0  0  0  0  0  0  0  0  0  0
   -5.4173    1.1873   -1.0500 C   0  0  1  0  0  0  0  0  0  0  0  0
   -4.1959    0.2462   -1.1924 C   0  0  1  0  0  0  0  0  0  0  0  0
   -3.7106    0.0928   -2.6360 C   0  0  0  0  0  0  0  0  0  0  0  0
   -2.4613    0.9178   -2.6793 C   0  0  0  0  0  0  0  0  0  0  0  0
   -2.0123    0.9520   -1.2238 C   0  0  1  0  0  0  0  0  0  0  0  0
   -3.1396    0.7482   -0.3994 O   0  0  0  0  0  0  0  0  0  0  0  0
   -0.9417   -0.1210   -0.9193 C   0  0  1  0  0  0  0  0  0  0  0  0
    0.4263    0.2546   -1.4953 C   0  0  0  0  0  0  0  0  0  0  0  0
    1.2548    0.5462   -0.2808 C   0  0  0  0  0  0  0  0  0  0  0  0
    0.5418   -0.2311    0.8173 C   0  0  1  0  0  0  0  0  0  0  0  0
   -0.8258   -0.2876    0.4794 O   0  0  0  0  0  0  0  0  0  0  0  0
    1.1032   -1.6689    0.9937 C   0  0  1  0  0  0  0  0  0  0  0  0
    2.4327   -1.6753    1.7808 C   0  0  0  0  0  0  0  0  0  0  0  0
    3.1343   -3.0399    1.6847 C   0  0  0  0  0  0  0  0  0  0  0  0
    4.4539   -3.0878    2.4826 C   0  0  0  0  0  0  0  0  0  0  0  0
    5.7162   -2.9003    1.6163 C   0  0  0  0  0  0  0  0  0  0  0  0
    5.8905   -1.4974    1.0098 C   0  0  0  0  0  0  0  0  0  0  0  0
    6.0503   -0.4022    2.0807 C   0  0  0  0  0  0  0  0  0  0  0  0
    6.4314    0.9636    1.4761 C   0  0  0  0  0  0  0  0  0  0  0  0
    7.9342    1.2951    1.5708 C   0  0  0  0  0  0  0  0  0  0  0  0
    8.8082    0.5484    0.5439 C   0  0  0  0  0  0  0  0  0  0  0  0
    9.5041   -0.6848    1.1465 C   0  0  0  0  0  0  0  0  0  0  0  0
   10.1564   -1.5852    0.0792 C   0  0  0  0  0  0  0  0  0  0  0  0
   11.5722   -1.1460   -0.3304 C   0  0  0  0  0  0  0  0  0  0  0  0
   11.5814    0.0982   -1.1709 C   0  0  0  0  0  0  0  0  0  0  0  0
   12.1574    1.2496   -0.8477 C   0  0  0  0  0  0  0  0  0  0  0  0
   12.0004    2.2526   -1.9632 C   0  0  1  0  0  0  0  0  0  0  0  0
   11.2655    1.5403   -2.9561 O   0  0  0  0  0  0  0  0  0  0  0  0
   11.0219    0.2610   -2.4943 C   0  0  0  0  0  0  0  0  0  0  0  0
   10.4057   -0.6189   -3.1495 O   0  0  0  0  0  0  0  0  0  0  0  0
   11.2234    3.4831   -1.5051 C   0  0  0  0  0  0  0  0  0  0  0  0
    0.1609   -2.4952    1.6330 O   0  0  0  0  0  0  0  0  0  0  0  0
   -5.1520    2.3969   -1.7146 O   0  0  0  0  0  0  0  0  0  0  0  0
   -8.1158    2.0646    0.6900 O   0  0  0  0  0  0  0  0  0  0  0  0
  -15.6108    1.1368    0.7151 H   0  0  0  0  0  0  0  0  0  0  0  0
  -15.0764    1.6231    2.3669 H   0  0  0  0  0  0  0  0  0  0  0  0
  -14.4265    2.4923    0.9253 H   0  0  0  0  0  0  0  0  0  0  0  0
  -13.9420   -0.4757    1.6404 H   0  0  0  0  0  0  0  0  0  0  0  0
  -12.7744    0.8803    1.8932 H   0  0  0  0  0  0  0  0  0  0  0  0
  -12.6804    1.3034   -0.5688 H   0  0  0  0  0  0  0  0  0  0  0  0
  -13.9557    0.0859   -0.8491 H   0  0  0  0  0  0  0  0  0  0  0  0
  -12.5247   -1.7478   -0.0708 H   0  0  0  0  0  0  0  0  0  0  0  0
  -11.7629   -0.8561   -1.4185 H   0  0  0  0  0  0  0  0  0  0  0  0
  -11.0248   -0.6122    1.5798 H   0  0  0  0  0  0  0  0  0  0  0  0
  -10.1398   -1.4999    0.3081 H   0  0  0  0  0  0  0  0  0  0  0  0
  -10.6106    1.5504    0.3777 H   0  0  0  0  0  0  0  0  0  0  0  0
   -9.7758    0.6927   -0.9462 H   0  0  0  0  0  0  0  0  0  0  0  0
   -8.9577    0.7604    2.0322 H   0  0  0  0  0  0  0  0  0  0  0  0
   -8.0099   -1.2563    1.1528 H   0  0  0  0  0  0  0  0  0  0  0  0
   -6.7033   -0.0825    1.2536 H   0  0  0  0  0  0  0  0  0  0  0  0
   -8.2056   -0.9889   -1.2967 H   0  0  0  0  0  0  0  0  0  0  0  0
   -6.5771   -1.4557   -0.8136 H   0  0  0  0  0  0  0  0  0  0  0  0
   -6.5815    0.2325   -2.6388 H   0  0  0  0  0  0  0  0  0  0  0  0
   -7.5086    1.3684   -1.6539 H   0  0  0  0  0  0  0  0  0  0  0  0
   -5.5412    1.4064    0.0332 H   0  0  0  0  0  0  0  0  0  0  0  0
   -4.4558   -0.7557   -0.7926 H   0  0  0  0  0  0  0  0  0  0  0  0
   -3.4610   -0.9733   -2.8360 H   0  0  0  0  0  0  0  0  0  0  0  0
   -4.4392    0.4384   -3.4007 H   0  0  0  0  0  0  0  0  0  0  0  0
   -2.7054    1.9486   -3.0205 H   0  0  0  0  0  0  0  0  0  0  0  0
   -1.7068    0.4781   -3.3682 H   0  0  0  0  0  0  0  0  0  0  0  0
   -1.5924    1.9558   -0.9898 H   0  0  0  0  0  0  0  0  0  0  0  0
   -1.2684   -1.0928   -1.3528 H   0  0  0  0  0  0  0  0  0  0  0  0
    0.8566   -0.6130   -2.0443 H   0  0  0  0  0  0  0  0  0  0  0  0
    0.4002    1.1325   -2.1787 H   0  0  0  0  0  0  0  0  0  0  0  0
    1.2080    1.6352   -0.0528 H   0  0  0  0  0  0  0  0  0  0  0  0
    2.3147    0.2488   -0.4305 H   0  0  0  0  0  0  0  0  0  0  0  0
    0.6399    0.3174    1.7796 H   0  0  0  0  0  0  0  0  0  0  0  0
    1.2849   -2.0962   -0.0172 H   0  0  0  0  0  0  0  0  0  0  0  0
    2.2351   -1.4303    2.8481 H   0  0  0  0  0  0  0  0  0  0  0  0
    3.0998   -0.8886    1.3847 H   0  0  0  0  0  0  0  0  0  0  0  0
    2.4484   -3.8114    2.0994 H   0  0  0  0  0  0  0  0  0  0  0  0
    3.3142   -3.3013    0.6182 H   0  0  0  0  0  0  0  0  0  0  0  0
    4.5307   -4.0972    2.9442 H   0  0  0  0  0  0  0  0  0  0  0  0
    4.4431   -2.3714    3.3314 H   0  0  0  0  0  0  0  0  0  0  0  0
    5.7021   -3.6459    0.7914 H   0  0  0  0  0  0  0  0  0  0  0  0
    6.6091   -3.1310    2.2378 H   0  0  0  0  0  0  0  0  0  0  0  0
    5.0411   -1.2621    0.3360 H   0  0  0  0  0  0  0  0  0  0  0  0
    6.7946   -1.5235    0.3681 H   0  0  0  0  0  0  0  0  0  0  0  0
    6.7902   -0.7124    2.8498 H   0  0  0  0  0  0  0  0  0  0  0  0
    5.0799   -0.2794    2.6061 H   0  0  0  0  0  0  0  0  0  0  0  0
    5.8903    1.7487    2.0495 H   0  0  0  0  0  0  0  0  0  0  0  0
    6.0779    1.0527    0.4246 H   0  0  0  0  0  0  0  0  0  0  0  0
    8.0367    2.3850    1.3709 H   0  0  0  0  0  0  0  0  0  0  0  0
    8.3045    1.1352    2.6079 H   0  0  0  0  0  0  0  0  0  0  0  0
    9.5911    1.2513    0.1978 H   0  0  0  0  0  0  0  0  0  0  0  0
    8.2085    0.2683   -0.3488 H   0  0  0  0  0  0  0  0  0  0  0  0
    8.7576   -1.2976    1.6907 H   0  0  0  0  0  0  0  0  0  0  0  0
   10.2604   -0.3625    1.8957 H   0  0  0  0  0  0  0  0  0  0  0  0
    9.4999   -1.6809   -0.8125 H   0  0  0  0  0  0  0  0  0  0  0  0
   10.2458   -2.6062    0.5116 H   0  0  0  0  0  0  0  0  0  0  0  0
   12.0370   -1.9611   -0.9257 H   0  0  0  0  0  0  0  0  0  0  0  0
   12.2003   -1.0061    0.5767 H   0  0  0  0  0  0  0  0  0  0  0  0
   12.6802    1.4341    0.0831 H   0  0  0  0  0  0  0  0  0  0  0  0
   12.9961    2.5431   -2.3606 H   0  0  0  0  0  0  0  0  0  0  0  0
   11.1443    4.2057   -2.3442 H   0  0  0  0  0  0  0  0  0  0  0  0
   11.7516    3.9754   -0.6605 H   0  0  0  0  0  0  0  0  0  0  0  0
   10.1997    3.1994   -1.1820 H   0  0  0  0  0  0  0  0  0  0  0  0
   -0.0419   -2.0915    2.5170 H   0  0  0  0  0  0  0  0  0  0  0  0
   -5.7767    3.0747   -1.3446 H   0  0  0  0  0  0  0  0  0  0  0  0
   -7.5045    2.2731    1.4443 H   0  0  0  0  0  0  0  0  0  0  0  0
  1  2  1  0
  2  3  1  0
  3  4  1  0
  4  5  1  0
  5  6  1  0
  6  7  1  0
  7  8  1  0
  8  9  1  0
  9 10  1  0
 10 11  1  0
 11 12  1  0
 12 13  1  0
 13 14  1  0
 14 15  1  0
 15 16  1  0
 15 17  1  0
 17 18  1  0
 18 19  1  0
 19 20  1  0
 20 21  1  0
 20 22  1  0
 22 23  1  0
 23 24  1  0
 24 25  1  0
 25 26  1  0
 26 27  1  0
 27 28  1  0
 28 29  1  0
 29 30  1  0
 30 31  1  0
 31 32  1  0
 32 33  1  0
 33 34  1  0
 34 35  1  0
 35 36  2  0
 36 37  1  0
 37 38  1  0
 38 39  1  0
 39 40  2  0
 37 41  1  0
 22 42  1  0
 11 43  1  0
  7 44  1  0
 16 12  1  0
 21 17  1  0
 39 35  1  0
  1 45  1  0
  1 46  1  0
  1 47  1  0
  2 48  1  0
  2 49  1  0
  3 50  1  0
  3 51  1  0
  4 52  1  0
  4 53  1  0
  5 54  1  0
  5 55  1  0
  6 56  1  0
  6 57  1  0
  7 58  1  1
  8 59  1  0
  8 60  1  0
  9 61  1  0
  9 62  1  0
 10 63  1  0
 10 64  1  0
 11 65  1  1
 12 66  1  1
 13 67  1  0
 13 68  1  0
 14 69  1  0
 14 70  1  0
 15 71  1  1
 17 72  1  6
 18 73  1  0
 18 74  1  0
 19 75  1  0
 19 76  1  0
 20 77  1  1
 22 78  1  6
 23 79  1  0
 23 80  1  0
 24 81  1  0
 24 82  1  0
 25 83  1  0
 25 84  1  0
 26 85  1  0
 26 86  1  0
 27 87  1  0
 27 88  1  0
 28 89  1  0
 28 90  1  0
 29 91  1  0
 29 92  1  0
 30 93  1  0
 30 94  1  0
 31 95  1  0
 31 96  1  0
 32 97  1  0
 32 98  1  0
 33 99  1  0
 33100  1  0
 34101  1  0
 34102  1  0
 36103  1  0
 37104  1  6
 41105  1  0
 41106  1  0
 41107  1  0
 42108  1  0
 43109  1  0
 44110  1  0
M  END
$$$$
