
     RDKit          3D

 51 55  0  0  0  0  0  0  0  0999 V2000
   -0.4253    3.6772    0.8648 C   0  0  0  0  0  0  0  0  0  0  0  0
   -1.4339    2.9815    0.1379 O   0  0  0  0  0  0  0  0  0  0  0  0
   -1.3582    1.6411   -0.2748 C   0  0  0  0  0  0  0  0  0  0  0  0
   -0.2326    0.8619    0.0422 C   0  0  0  0  0  0  0  0  0  0  0  0
   -0.1296   -0.4666   -0.3863 C   0  0  0  0  0  0  0  0  0  0  0  0
    1.0541   -1.3714   -0.0540 C   0  0  1  0  0  0  0  0  0  0  0  0
    2.2906   -0.6771    0.5229 C   0  0  0  0  0  0  0  0  0  0  0  0
    2.9491   -1.1143    1.7102 C   0  0  0  0  0  0  0  0  0  0  0  0
    4.1126   -0.4707    2.1695 C   0  0  0  0  0  0  0  0  0  0  0  0
    4.6194    0.5776    1.4131 C   0  0  0  0  0  0  0  0  0  0  0  0
    4.0333    0.9764    0.2598 C   0  0  0  0  0  0  0  0  0  0  0  0
    2.8831    0.3686   -0.2308 C   0  0  0  0  0  0  0  0  0  0  0  0
    4.7553    2.0191   -0.2880 O   0  0  0  0  0  0  0  0  0  0  0  0
    5.8633    2.2941    0.5803 C   0  0  0  0  0  0  0  0  0  0  0  0
    5.7396    1.3497    1.6529 O   0  0  0  0  0  0  0  0  0  0  0  0
    0.5045   -2.6065    0.7154 C   0  0  1  0  0  0  0  0  0  0  0  0
   -0.2208   -2.2555    1.9742 C   0  0  0  0  0  0  0  0  0  0  0  0
    0.2295   -1.5078    2.8812 O   0  0  0  0  0  0  0  0  0  0  0  0
   -1.4703   -2.8240    2.0520 O   0  0  0  0  0  0  0  0  0  0  0  0
   -1.7541   -3.6217    0.9209 C   0  0  0  0  0  0  0  0  0  0  0  0
   -0.6133   -3.3489   -0.0920 C   0  0  0  0  0  0  0  0  0  0  0  0
   -1.1350   -2.5548   -1.3259 C   0  0  0  0  0  0  0  0  0  0  0  0
   -1.2221   -1.0667   -1.0344 C   0  0  0  0  0  0  0  0  0  0  0  0
   -2.3612   -0.3101   -1.3752 C   0  0  0  0  0  0  0  0  0  0  0  0
   -2.4269    1.0637   -1.0119 C   0  0  0  0  0  0  0  0  0  0  0  0
   -3.5627    1.8019   -1.3961 O   0  0  0  0  0  0  0  0  0  0  0  0
   -3.8076    3.1875   -1.1808 C   0  0  0  0  0  0  0  0  0  0  0  0
   -3.3903   -0.9792   -2.0699 O   0  0  0  0  0  0  0  0  0  0  0  0
   -4.6541   -0.4514   -2.4572 C   0  0  0  0  0  0  0  0  0  0  0  0
   -0.2661    3.1969    1.8532 H   0  0  0  0  0  0  0  0  0  0  0  0
   -0.7553    4.7231    1.0295 H   0  0  0  0  0  0  0  0  0  0  0  0
    0.5224    3.6917    0.2863 H   0  0  0  0  0  0  0  0  0  0  0  0
    0.5581    1.2898    0.6374 H   0  0  0  0  0  0  0  0  0  0  0  0
    1.4243   -1.7707   -1.0250 H   0  0  0  0  0  0  0  0  0  0  0  0
    2.5927   -1.9583    2.2791 H   0  0  0  0  0  0  0  0  0  0  0  0
    4.6085   -0.7927    3.0758 H   0  0  0  0  0  0  0  0  0  0  0  0
    2.4534    0.7018   -1.1673 H   0  0  0  0  0  0  0  0  0  0  0  0
    5.7943    3.3304    0.9725 H   0  0  0  0  0  0  0  0  0  0  0  0
    6.8209    2.1379    0.0409 H   0  0  0  0  0  0  0  0  0  0  0  0
    1.3218   -3.3250    0.9418 H   0  0  0  0  0  0  0  0  0  0  0  0
   -1.7452   -4.6909    1.2235 H   0  0  0  0  0  0  0  0  0  0  0  0
   -2.7627   -3.3687    0.5295 H   0  0  0  0  0  0  0  0  0  0  0  0
   -0.2184   -4.3231   -0.4577 H   0  0  0  0  0  0  0  0  0  0  0  0
   -0.4308   -2.6993   -2.1735 H   0  0  0  0  0  0  0  0  0  0  0  0
   -2.1037   -2.9812   -1.6615 H   0  0  0  0  0  0  0  0  0  0  0  0
   -4.7752    3.4559   -1.6520 H   0  0  0  0  0  0  0  0  0  0  0  0
   -3.8844    3.4014   -0.0941 H   0  0  0  0  0  0  0  0  0  0  0  0
   -3.0117    3.7986   -1.6554 H   0  0  0  0  0  0  0  0  0  0  0  0
   -5.2441   -1.2565   -2.9412 H   0  0  0  0  0  0  0  0  0  0  0  0
   -5.2152   -0.1010   -1.5657 H   0  0  0  0  0  0  0  0  0  0  0  0
   -4.5201    0.3661   -3.1959 H   0  0  0  0  0  0  0  0  0  0  0  0
  1  2  1  0
  2  3  1  0
  3  4  2  0
  4  5  1  0
  5  6  1  0
  6  7  1  0
  7  8  2  0
  8  9  1  0
  9 10  2  0
 10 11  1  0
 11 12  2  0
 11 13  1  0
 13 14  1  0
 14 15  1  0
  6 16  1  0
 16 17  1  0
 17 18  2  0
 17 19  1  0
 19 20  1  0
 20 21  1  0
 21 22  1  0
 22 23  1  0
 23 24  1  0
 24 25  2  0
 25 26  1  0
 26 27  1  0
 24 28  1  0
 28 29  1  0
 25  3  1  0
 23  5  2  0
 12  7  1  0
 21 16  1  0
 15 10  1  0
  1 30  1  0
  1 31  1  0
  1 32  1  0
  4 33  1  0
  6 34  1  6
  8 35  1  0
  9 36  1  0
 12 37  1  0
 14 38  1  0
 14 39  1  0
 16 40  1  1
 20 41  1  0
 20 42  1  0
 21 43  1  0
 22 44  1  0
 22 45  1  0
 27 46  1  0
 27 47  1  0
 27 48  1  0
 29 49  1  0
 29 50  1  0
 29 51  1  0
M  END
$$$$
