
     RDKit          3D

 80 83  0  0  0  0  0  0  0  0999 V2000
    6.9371   -1.1628   -1.7310 C   0  0  0  0  0  0  0  0  0  0  0  0
    7.7219   -0.3492   -0.7278 C   0  0  0  0  0  0  0  0  0  0  0  0
    7.3040   -0.1885    0.5476 C   0  0  0  0  0  0  0  0  0  0  0  0
    6.0106   -0.7404    1.0949 C   0  0  0  0  0  0  0  0  0  0  0  0
    4.8535    0.2483    0.8625 C   0  0  0  0  0  0  0  0  0  0  0  0
    3.4564   -0.3742    1.1540 C   0  0  2  0  0  0  0  0  0  0  0  0
    2.3204    0.4624    0.4625 C   0  0  1  0  0  0  0  0  0  0  0  0
    2.4984    0.5365   -1.0835 C   0  0  0  0  0  0  0  0  0  0  0  0
    1.0851    0.5049   -1.7180 C   0  0  1  0  0  0  0  0  0  0  0  0
    0.1207    0.7641   -0.5362 C   0  0  2  0  0  0  0  0  0  0  0  0
    0.8386   -0.0053    0.6239 C   0  0  1  0  0  0  0  0  0  0  0  0
    0.7604   -1.5663    0.4433 C   0  0  0  0  0  0  0  0  0  0  0  0
    0.1242    0.3576    1.9495 C   0  0  0  0  0  0  0  0  0  0  0  0
   -1.3756    0.1337    1.8405 C   0  0  0  0  0  0  0  0  0  0  0  0
   -2.0630    0.0966    0.6630 C   0  0  0  0  0  0  0  0  0  0  0  0
   -1.3048    0.2465   -0.6330 C   0  0  0  0  0  0  0  0  0  0  0  0
   -1.9147    0.0885   -1.8204 C   0  0  0  0  0  0  0  0  0  0  0  0
   -3.3579   -0.2993   -1.9367 C   0  0  0  0  0  0  0  0  0  0  0  0
   -4.1602    0.2458   -0.7320 C   0  0  2  0  0  0  0  0  0  0  0  0
   -3.5585   -0.2874    0.6261 C   0  0  1  0  0  0  0  0  0  0  0  0
   -3.5985   -1.8311    0.7774 C   0  0  0  0  0  0  0  0  0  0  0  0
   -4.3370    0.3760    1.8024 C   0  0  0  0  0  0  0  0  0  0  0  0
   -5.8574    0.2222    1.6895 C   0  0  0  0  0  0  0  0  0  0  0  0
   -6.3903    0.8203    0.3773 C   0  0  1  0  0  0  0  0  0  0  0  0
   -5.7346    0.1957   -0.8977 C   0  0  0  0  0  0  0  0  0  0  0  0
   -6.2851   -1.2300   -1.1771 C   0  0  0  0  0  0  0  0  0  0  0  0
   -6.1511    1.0844   -2.1045 C   0  0  0  0  0  0  0  0  0  0  0  0
   -7.7971    0.7547    0.3321 O   0  0  0  0  0  0  0  0  0  0  0  0
   -0.0076    2.3081   -0.3045 C   0  0  0  0  0  0  0  0  0  0  0  0
    0.9368    1.4084   -2.7917 O   0  0  0  0  0  0  0  0  0  0  0  0
    3.2493   -0.4657    2.6794 C   0  0  0  0  0  0  0  0  0  0  0  0
    9.0180    0.2955   -1.1458 C   0  0  0  0  0  0  0  0  0  0  0  0
    6.8808   -2.2204   -1.3987 H   0  0  0  0  0  0  0  0  0  0  0  0
    5.9115   -0.7558   -1.8433 H   0  0  0  0  0  0  0  0  0  0  0  0
    7.4170   -1.1472   -2.7314 H   0  0  0  0  0  0  0  0  0  0  0  0
    7.9133    0.3991    1.2307 H   0  0  0  0  0  0  0  0  0  0  0  0
    5.7852   -1.7299    0.6445 H   0  0  0  0  0  0  0  0  0  0  0  0
    6.1514   -0.9036    2.1829 H   0  0  0  0  0  0  0  0  0  0  0  0
    5.0051    1.1525    1.4931 H   0  0  0  0  0  0  0  0  0  0  0  0
    4.9124    0.5906   -0.1889 H   0  0  0  0  0  0  0  0  0  0  0  0
    3.4457   -1.4047    0.7377 H   0  0  0  0  0  0  0  0  0  0  0  0
    2.4057    1.4934    0.8709 H   0  0  0  0  0  0  0  0  0  0  0  0
    3.0489    1.4648   -1.3492 H   0  0  0  0  0  0  0  0  0  0  0  0
    3.0814   -0.3302   -1.4666 H   0  0  0  0  0  0  0  0  0  0  0  0
    0.9010   -0.5132   -2.1249 H   0  0  0  0  0  0  0  0  0  0  0  0
    1.3555   -1.9240   -0.4208 H   0  0  0  0  0  0  0  0  0  0  0  0
    1.1472   -2.0921    1.3377 H   0  0  0  0  0  0  0  0  0  0  0  0
   -0.2765   -1.9303    0.3010 H   0  0  0  0  0  0  0  0  0  0  0  0
    0.3270    1.4071    2.2459 H   0  0  0  0  0  0  0  0  0  0  0  0
    0.4893   -0.2687    2.7845 H   0  0  0  0  0  0  0  0  0  0  0  0
   -1.8809   -0.0387    2.7778 H   0  0  0  0  0  0  0  0  0  0  0  0
   -1.3784    0.2680   -2.7418 H   0  0  0  0  0  0  0  0  0  0  0  0
   -3.4288   -1.4014   -2.0169 H   0  0  0  0  0  0  0  0  0  0  0  0
   -3.7315    0.1237   -2.8891 H   0  0  0  0  0  0  0  0  0  0  0  0
   -3.9325    1.3396   -0.7178 H   0  0  0  0  0  0  0  0  0  0  0  0
   -3.1119   -2.1312    1.7306 H   0  0  0  0  0  0  0  0  0  0  0  0
   -4.6165   -2.2416    0.8194 H   0  0  0  0  0  0  0  0  0  0  0  0
   -3.0425   -2.3407   -0.0350 H   0  0  0  0  0  0  0  0  0  0  0  0
   -4.0473   -0.0721    2.7759 H   0  0  0  0  0  0  0  0  0  0  0  0
   -4.0898    1.4604    1.8477 H   0  0  0  0  0  0  0  0  0  0  0  0
   -6.1474   -0.8431    1.7924 H   0  0  0  0  0  0  0  0  0  0  0  0
   -6.3271    0.7619    2.5406 H   0  0  0  0  0  0  0  0  0  0  0  0
   -6.1256    1.9020    0.4013 H   0  0  0  0  0  0  0  0  0  0  0  0
   -6.3847   -1.8412   -0.2654 H   0  0  0  0  0  0  0  0  0  0  0  0
   -5.6650   -1.7747   -1.9157 H   0  0  0  0  0  0  0  0  0  0  0  0
   -7.3109   -1.1744   -1.6018 H   0  0  0  0  0  0  0  0  0  0  0  0
   -7.2528    1.2268   -2.1327 H   0  0  0  0  0  0  0  0  0  0  0  0
   -5.8721    0.6192   -3.0723 H   0  0  0  0  0  0  0  0  0  0  0  0
   -5.6846    2.0913   -2.0463 H   0  0  0  0  0  0  0  0  0  0  0  0
   -8.0723   -0.1758    0.5400 H   0  0  0  0  0  0  0  0  0  0  0  0
   -0.5201    2.7797   -1.1707 H   0  0  0  0  0  0  0  0  0  0  0  0
   -0.6303    2.5579    0.5781 H   0  0  0  0  0  0  0  0  0  0  0  0
    0.9737    2.8101   -0.1904 H   0  0  0  0  0  0  0  0  0  0  0  0
    1.3717    2.2678   -2.5569 H   0  0  0  0  0  0  0  0  0  0  0  0
    4.1636   -0.8130    3.1985 H   0  0  0  0  0  0  0  0  0  0  0  0
    2.9712    0.5237    3.1007 H   0  0  0  0  0  0  0  0  0  0  0  0
    2.4735   -1.2115    2.9298 H   0  0  0  0  0  0  0  0  0  0  0  0
    8.9466    1.3967   -1.0196 H   0  0  0  0  0  0  0  0  0  0  0  0
    9.2599    0.0819   -2.2078 H   0  0  0  0  0  0  0  0  0  0  0  0
    9.8489   -0.0892   -0.5168 H   0  0  0  0  0  0  0  0  0  0  0  0
  1  2  1  0
  2  3  2  3
  3  4  1  0
  4  5  1  0
  5  6  1  0
  6  7  1  0
  7  8  1  0
  8  9  1  0
  9 10  1  0
 10 11  1  0
 11 12  1  6
 11 13  1  0
 13 14  1  0
 14 15  2  0
 15 16  1  0
 16 17  2  0
 17 18  1  0
 18 19  1  0
 19 20  1  0
 20 21  1  6
 20 22  1  0
 22 23  1  0
 23 24  1  0
 24 25  1  0
 25 26  1  0
 25 27  1  0
 24 28  1  0
 10 29  1  1
  9 30  1  0
  6 31  1  0
  2 32  1  0
 11  7  1  0
 20 15  1  0
 16 10  1  0
 25 19  1  0
  1 33  1  0
  1 34  1  0
  1 35  1  0
  3 36  1  0
  4 37  1  0
  4 38  1  0
  5 39  1  0
  5 40  1  0
  6 41  1  6
  7 42  1  1
  8 43  1  0
  8 44  1  0
  9 45  1  6
 12 46  1  0
 12 47  1  0
 12 48  1  0
 13 49  1  0
 13 50  1  0
 14 51  1  0
 17 52  1  0
 18 53  1  0
 18 54  1  0
 19 55  1  1
 21 56  1  0
 21 57  1  0
 21 58  1  0
 22 59  1  0
 22 60  1  0
 23 61  1  0
 23 62  1  0
 24 63  1  1
 26 64  1  0
 26 65  1  0
 26 66  1  0
 27 67  1  0
 27 68  1  0
 27 69  1  0
 28 70  1  0
 29 71  1  0
 29 72  1  0
 29 73  1  0
 30 74  1  0
 31 75  1  0
 31 76  1  0
 31 77  1  0
 32 78  1  0
 32 79  1  0
 32 80  1  0
M  END
$$$$
