
     RDKit          3D

 30 33  0  0  0  0  0  0  0  0999 V2000
   -4.7079   -1.3021   -0.1509 C   0  0  0  0  0  0  0  0  0  0  0  0
   -3.2950   -1.4317   -0.0313 O   0  0  0  0  0  0  0  0  0  0  0  0
   -2.3874   -0.3669   -0.1466 C   0  0  0  0  0  0  0  0  0  0  0  0
   -2.8089    0.9552   -0.3959 C   0  0  0  0  0  0  0  0  0  0  0  0
   -1.8759    1.9922   -0.4978 C   0  0  0  0  0  0  0  0  0  0  0  0
   -0.5075    1.7260   -0.3577 C   0  0  0  0  0  0  0  0  0  0  0  0
   -0.0806    0.4034   -0.1177 C   0  0  0  0  0  0  0  0  0  0  0  0
   -1.0176   -0.6359   -0.0058 C   0  0  0  0  0  0  0  0  0  0  0  0
   -0.6067   -1.8729    0.2456 O   0  0  0  0  0  0  0  0  0  0  0  0
    0.6736   -2.2078    0.3869 C   0  0  0  0  0  0  0  0  0  0  0  0
    0.9371   -3.4021    0.6776 O   0  0  0  0  0  0  0  0  0  0  0  0
    1.6981   -1.2329    0.2445 C   0  0  0  0  0  0  0  0  0  0  0  0
    1.2861    0.1051    0.0183 C   0  0  0  0  0  0  0  0  0  0  0  0
    2.2328    1.1513   -0.0673 C   0  0  0  0  0  0  0  0  0  0  0  0
    1.8028    2.4679   -0.2996 C   0  0  0  0  0  0  0  0  0  0  0  0
    0.4421    2.7528   -0.4485 C   0  0  0  0  0  0  0  0  0  0  0  0
    3.5912    0.8655    0.0867 C   0  0  0  0  0  0  0  0  0  0  0  0
    4.0121   -0.4466    0.2915 C   0  0  0  0  0  0  0  0  0  0  0  0
    3.0961   -1.5046    0.3406 C   0  0  0  0  0  0  0  0  0  0  0  0
    3.6366   -2.7886    0.4586 O   0  0  0  0  0  0  0  0  0  0  0  0
   -5.0964   -0.6185    0.6332 H   0  0  0  0  0  0  0  0  0  0  0  0
   -4.9721   -0.9182   -1.1589 H   0  0  0  0  0  0  0  0  0  0  0  0
   -5.1758   -2.2988   -0.0167 H   0  0  0  0  0  0  0  0  0  0  0  0
   -3.8576    1.1931   -0.5089 H   0  0  0  0  0  0  0  0  0  0  0  0
   -2.2246    3.0009   -0.6848 H   0  0  0  0  0  0  0  0  0  0  0  0
    2.5200    3.2774   -0.3679 H   0  0  0  0  0  0  0  0  0  0  0  0
    0.1328    3.7752   -0.6300 H   0  0  0  0  0  0  0  0  0  0  0  0
    4.3313    1.6553    0.0348 H   0  0  0  0  0  0  0  0  0  0  0  0
    5.0718   -0.6508    0.3827 H   0  0  0  0  0  0  0  0  0  0  0  0
    3.1497   -3.6431    0.2357 H   0  0  0  0  0  0  0  0  0  0  0  0
  1  2  1  0
  2  3  1  0
  3  4  2  0
  4  5  1  0
  5  6  2  0
  6  7  1  0
  7  8  2  0
  8  9  1  0
  9 10  1  0
 10 11  2  0
 10 12  1  0
 12 13  2  0
 13 14  1  0
 14 15  1  0
 15 16  2  0
 14 17  2  0
 17 18  1  0
 18 19  2  0
 19 20  1  0
  8  3  1  0
 19 12  1  0
 16  6  1  0
 13  7  1  0
  1 21  1  0
  1 22  1  0
  1 23  1  0
  4 24  1  0
  5 25  1  0
 15 26  1  0
 16 27  1  0
 17 28  1  0
 18 29  1  0
 20 30  1  0
M  END
$$$$
