
     RDKit          3D

 42 45  0  0  0  0  0  0  0  0999 V2000
    5.3626   -0.7675   -1.3185 C   0  0  0  0  0  0  0  0  0  0  0  0
    4.5096   -0.3247   -0.1245 C   0  0  0  0  0  0  0  0  0  0  0  0
    5.0742   -0.9221    1.1705 C   0  0  0  0  0  0  0  0  0  0  0  0
    4.5384    1.1928   -0.0201 C   0  0  0  0  0  0  0  0  0  0  0  0
    3.4456    1.9054    0.2729 C   0  0  0  0  0  0  0  0  0  0  0  0
    2.1332    1.2538    0.3863 C   0  0  0  0  0  0  0  0  0  0  0  0
    2.0374   -0.1135    0.0694 C   0  0  0  0  0  0  0  0  0  0  0  0
    3.1770   -0.8256   -0.3145 O   0  0  0  0  0  0  0  0  0  0  0  0
    0.7831   -0.7180    0.1275 C   0  0  0  0  0  0  0  0  0  0  0  0
    0.4741   -1.9950   -0.1597 N   0  0  0  0  0  0  0  0  0  0  0  0
   -0.8616   -2.1063    0.0235 C   0  0  0  0  0  0  0  0  0  0  0  0
   -1.3967   -0.8923    0.4435 C   0  0  0  0  0  0  0  0  0  0  0  0
   -0.3339   -0.0120    0.4943 C   0  0  0  0  0  0  0  0  0  0  0  0
   -0.2760    1.3456    0.8136 C   0  0  0  0  0  0  0  0  0  0  0  0
    0.9776    1.9829    0.7557 C   0  0  0  0  0  0  0  0  0  0  0  0
   -2.8438   -0.5884    0.6816 C   0  0  0  0  0  0  0  0  0  0  0  0
   -3.4543    0.0642   -0.5649 C   0  0  1  0  0  0  0  0  0  0  0  0
   -4.3947   -0.7812   -1.1986 O   0  0  0  0  0  0  0  0  0  0  0  0
   -4.9126    0.3697   -0.5692 C   0  0  0  0  0  0  0  0  0  0  0  0
   -5.7907    0.0354    0.6416 C   0  0  0  0  0  0  0  0  0  0  0  0
   -5.4126    1.4056   -1.5751 C   0  0  0  0  0  0  0  0  0  0  0  0
    5.3491   -1.8747   -1.4123 H   0  0  0  0  0  0  0  0  0  0  0  0
    6.4163   -0.4340   -1.1988 H   0  0  0  0  0  0  0  0  0  0  0  0
    4.9569   -0.3344   -2.2581 H   0  0  0  0  0  0  0  0  0  0  0  0
    6.1187   -0.5816    1.3404 H   0  0  0  0  0  0  0  0  0  0  0  0
    4.4535   -0.6107    2.0382 H   0  0  0  0  0  0  0  0  0  0  0  0
    5.0652   -2.0320    1.1188 H   0  0  0  0  0  0  0  0  0  0  0  0
    5.4909    1.7059   -0.0838 H   0  0  0  0  0  0  0  0  0  0  0  0
    3.5297    2.9765    0.4100 H   0  0  0  0  0  0  0  0  0  0  0  0
    1.1258   -2.7475   -0.4749 H   0  0  0  0  0  0  0  0  0  0  0  0
   -1.4209   -3.0167   -0.1489 H   0  0  0  0  0  0  0  0  0  0  0  0
   -1.1655    1.8966    1.0902 H   0  0  0  0  0  0  0  0  0  0  0  0
    1.0485    3.0378    0.9897 H   0  0  0  0  0  0  0  0  0  0  0  0
   -2.9333    0.1092    1.5411 H   0  0  0  0  0  0  0  0  0  0  0  0
   -3.3678   -1.5322    0.9462 H   0  0  0  0  0  0  0  0  0  0  0  0
   -2.8099    0.5993   -1.2962 H   0  0  0  0  0  0  0  0  0  0  0  0
   -6.8625    0.1290    0.3678 H   0  0  0  0  0  0  0  0  0  0  0  0
   -5.5716    0.7482    1.4635 H   0  0  0  0  0  0  0  0  0  0  0  0
   -5.6254   -1.0012    1.0022 H   0  0  0  0  0  0  0  0  0  0  0  0
   -5.4743    2.3974   -1.0808 H   0  0  0  0  0  0  0  0  0  0  0  0
   -4.7368    1.4854   -2.4537 H   0  0  0  0  0  0  0  0  0  0  0  0
   -6.4227    1.1193   -1.9359 H   0  0  0  0  0  0  0  0  0  0  0  0
  1  2  1  0
  2  3  1  0
  2  4  1  0
  4  5  2  0
  5  6  1  0
  6  7  2  0
  7  8  1  0
  7  9  1  0
  9 10  1  0
 10 11  1  0
 11 12  2  0
 12 13  1  0
 13 14  1  0
 14 15  2  0
 12 16  1  0
 16 17  1  0
 17 18  1  0
 18 19  1  0
 19 20  1  0
 19 21  1  0
  8  2  1  0
 13  9  2  0
 19 17  1  0
 15  6  1  0
  1 22  1  0
  1 23  1  0
  1 24  1  0
  3 25  1  0
  3 26  1  0
  3 27  1  0
  4 28  1  0
  5 29  1  0
 10 30  1  0
 11 31  1  0
 14 32  1  0
 15 33  1  0
 16 34  1  0
 16 35  1  0
 17 36  1  6
 20 37  1  0
 20 38  1  0
 20 39  1  0
 21 40  1  0
 21 41  1  0
 21 42  1  0
M  END
$$$$
