
     RDKit          3D

 42 45  0  0  0  0  0  0  0  0999 V2000
    4.4575   -2.1708   -1.1928 C   0  0  0  0  0  0  0  0  0  0  0  0
    3.9996   -1.0525   -0.2500 C   0  0  0  0  0  0  0  0  0  0  0  0
    4.7399   -1.1628    1.0888 C   0  0  0  0  0  0  0  0  0  0  0  0
    4.3161    0.2966   -0.8778 C   0  0  0  0  0  0  0  0  0  0  0  0
    3.4641    1.3254   -0.8173 C   0  0  0  0  0  0  0  0  0  0  0  0
    2.1223    1.1553   -0.2426 C   0  0  0  0  0  0  0  0  0  0  0  0
    1.7177   -0.1374    0.1367 C   0  0  0  0  0  0  0  0  0  0  0  0
    2.5935   -1.2168   -0.0082 O   0  0  0  0  0  0  0  0  0  0  0  0
    0.4265   -0.3057    0.6333 C   0  0  0  0  0  0  0  0  0  0  0  0
   -0.1526   -1.4492    1.0399 N   0  0  0  0  0  0  0  0  0  0  0  0
   -1.4022   -1.1149    1.4350 C   0  0  0  0  0  0  0  0  0  0  0  0
   -1.6125    0.2519    1.2774 C   0  0  0  0  0  0  0  0  0  0  0  0
   -0.4330    0.7549    0.7637 C   0  0  0  0  0  0  0  0  0  0  0  0
   -0.0626    2.0518    0.4035 C   0  0  0  0  0  0  0  0  0  0  0  0
    1.2330    2.2484   -0.1102 C   0  0  0  0  0  0  0  0  0  0  0  0
   -2.8751    1.0031    1.5730 C   0  0  0  0  0  0  0  0  0  0  0  0
   -3.5326    1.4823    0.2731 C   0  0  2  0  0  0  0  0  0  0  0  0
   -4.9435    1.4260    0.3541 O   0  0  0  0  0  0  0  0  0  0  0  0
   -4.3355    0.5410   -0.5599 C   0  0  0  0  0  0  0  0  0  0  0  0
   -4.5215   -0.9277   -0.1653 C   0  0  0  0  0  0  0  0  0  0  0  0
   -4.5961    0.9403   -2.0117 C   0  0  0  0  0  0  0  0  0  0  0  0
    4.2297   -3.1647   -0.7512 H   0  0  0  0  0  0  0  0  0  0  0  0
    5.5514   -2.1081   -1.3812 H   0  0  0  0  0  0  0  0  0  0  0  0
    3.9241   -2.0921   -2.1646 H   0  0  0  0  0  0  0  0  0  0  0  0
    5.8381   -1.0701    0.9423 H   0  0  0  0  0  0  0  0  0  0  0  0
    4.4047   -0.3588    1.7791 H   0  0  0  0  0  0  0  0  0  0  0  0
    4.5259   -2.1422    1.5680 H   0  0  0  0  0  0  0  0  0  0  0  0
    5.3014    0.4629   -1.2975 H   0  0  0  0  0  0  0  0  0  0  0  0
    3.7635    2.2884   -1.2128 H   0  0  0  0  0  0  0  0  0  0  0  0
    0.2704   -2.4039    1.0486 H   0  0  0  0  0  0  0  0  0  0  0  0
   -2.1256   -1.8255    1.8130 H   0  0  0  0  0  0  0  0  0  0  0  0
   -0.7473    2.8827    0.5107 H   0  0  0  0  0  0  0  0  0  0  0  0
    1.5413    3.2430   -0.4072 H   0  0  0  0  0  0  0  0  0  0  0  0
   -3.5588    0.3805    2.1872 H   0  0  0  0  0  0  0  0  0  0  0  0
   -2.6230    1.8940    2.1859 H   0  0  0  0  0  0  0  0  0  0  0  0
   -3.1897    2.4333   -0.1871 H   0  0  0  0  0  0  0  0  0  0  0  0
   -5.3816   -1.3573   -0.7202 H   0  0  0  0  0  0  0  0  0  0  0  0
   -4.7295   -1.0530    0.9165 H   0  0  0  0  0  0  0  0  0  0  0  0
   -3.6101   -1.4995   -0.4355 H   0  0  0  0  0  0  0  0  0  0  0  0
   -5.6111    0.6082   -2.3152 H   0  0  0  0  0  0  0  0  0  0  0  0
   -4.5308    2.0405   -2.1545 H   0  0  0  0  0  0  0  0  0  0  0  0
   -3.8460    0.4507   -2.6670 H   0  0  0  0  0  0  0  0  0  0  0  0
  1  2  1  0
  2  3  1  0
  2  4  1  0
  4  5  2  0
  5  6  1  0
  6  7  2  0
  7  8  1  0
  7  9  1  0
  9 10  1  0
 10 11  1  0
 11 12  2  0
 12 13  1  0
 13 14  1  0
 14 15  2  0
 12 16  1  0
 16 17  1  0
 17 18  1  0
 18 19  1  0
 19 20  1  0
 19 21  1  0
  8  2  1  0
 13  9  2  0
 19 17  1  0
 15  6  1  0
  1 22  1  0
  1 23  1  0
  1 24  1  0
  3 25  1  0
  3 26  1  0
  3 27  1  0
  4 28  1  0
  5 29  1  0
 10 30  1  0
 11 31  1  0
 14 32  1  0
 15 33  1  0
 16 34  1  0
 16 35  1  0
 17 36  1  6
 20 37  1  0
 20 38  1  0
 20 39  1  0
 21 40  1  0
 21 41  1  0
 21 42  1  0
M  END
$$$$
