
     RDKit          3D

 48 47  0  0  0  0  0  0  0  0999 V2000
    8.1060    1.6810    0.3208 C   0  0  0  0  0  0  0  0  0  0  0  0
    6.8663    0.9857    0.2653 O   0  0  0  0  0  0  0  0  0  0  0  0
    5.8887    1.2623   -0.6970 C   0  0  0  0  0  0  0  0  0  0  0  0
    6.0821    2.1572   -1.5640 O   0  0  0  0  0  0  0  0  0  0  0  0
    4.6228    0.5146   -0.7102 C   0  0  0  0  0  0  0  0  0  0  0  0
    4.3572   -0.4484    0.1783 C   0  0  0  0  0  0  0  0  0  0  0  0
    3.0652   -1.2118    0.1418 C   0  0  0  0  0  0  0  0  0  0  0  0
    1.8927   -0.3382    0.6017 C   0  0  0  0  0  0  0  0  0  0  0  0
    0.6023   -1.1181    0.5701 C   0  0  0  0  0  0  0  0  0  0  0  0
   -0.2225   -1.1938   -0.5000 C   0  0  0  0  0  0  0  0  0  0  0  0
   -1.4619   -2.0698   -0.4280 C   0  0  0  0  0  0  0  0  0  0  0  0
   -2.6749   -1.4397    0.3099 C   0  0  0  0  0  0  0  0  0  0  0  0
   -3.2527   -0.1848   -0.4360 C   0  0  1  0  0  0  0  0  0  0  0  0
   -4.6296    0.3713    0.0912 C   0  0  0  0  0  0  0  0  0  0  0  0
   -5.4255   -0.6741    0.5986 O   0  0  0  0  0  0  0  0  0  0  0  0
   -5.3882    1.0587   -1.0681 C   0  0  0  0  0  0  0  0  0  0  0  0
   -4.4571    1.4198    1.2116 C   0  0  0  0  0  0  0  0  0  0  0  0
   -2.3081    0.8487   -0.5780 O   0  0  0  0  0  0  0  0  0  0  0  0
   -2.4042   -1.2436    1.8111 C   0  0  0  0  0  0  0  0  0  0  0  0
    0.1059   -0.4961   -1.8015 C   0  0  0  0  0  0  0  0  0  0  0  0
    8.7082    1.2856    1.1642 H   0  0  0  0  0  0  0  0  0  0  0  0
    7.9269    2.7650    0.4833 H   0  0  0  0  0  0  0  0  0  0  0  0
    8.6687    1.5309   -0.6249 H   0  0  0  0  0  0  0  0  0  0  0  0
    3.8893    0.7587   -1.4701 H   0  0  0  0  0  0  0  0  0  0  0  0
    5.0896   -0.7179    0.9299 H   0  0  0  0  0  0  0  0  0  0  0  0
    3.1514   -2.0884    0.8205 H   0  0  0  0  0  0  0  0  0  0  0  0
    2.8920   -1.5959   -0.8861 H   0  0  0  0  0  0  0  0  0  0  0  0
    1.8181    0.5839   -0.0114 H   0  0  0  0  0  0  0  0  0  0  0  0
    2.0763   -0.0155    1.6497 H   0  0  0  0  0  0  0  0  0  0  0  0
    0.3618   -1.6844    1.4648 H   0  0  0  0  0  0  0  0  0  0  0  0
   -1.7840   -2.3457   -1.4555 H   0  0  0  0  0  0  0  0  0  0  0  0
   -1.1955   -3.0354    0.0565 H   0  0  0  0  0  0  0  0  0  0  0  0
   -3.4593   -2.2265    0.2576 H   0  0  0  0  0  0  0  0  0  0  0  0
   -3.4458   -0.5568   -1.4670 H   0  0  0  0  0  0  0  0  0  0  0  0
   -5.6147   -1.3036   -0.1462 H   0  0  0  0  0  0  0  0  0  0  0  0
   -5.5904    0.3395   -1.8906 H   0  0  0  0  0  0  0  0  0  0  0  0
   -4.7937    1.9020   -1.4814 H   0  0  0  0  0  0  0  0  0  0  0  0
   -6.3655    1.4524   -0.7142 H   0  0  0  0  0  0  0  0  0  0  0  0
   -5.4512    1.7192    1.6084 H   0  0  0  0  0  0  0  0  0  0  0  0
   -3.9559    2.3354    0.8304 H   0  0  0  0  0  0  0  0  0  0  0  0
   -3.8658    1.0319    2.0605 H   0  0  0  0  0  0  0  0  0  0  0  0
   -1.9598    1.0781    0.3197 H   0  0  0  0  0  0  0  0  0  0  0  0
   -3.3590   -1.1222    2.3611 H   0  0  0  0  0  0  0  0  0  0  0  0
   -1.7485   -0.3722    2.0076 H   0  0  0  0  0  0  0  0  0  0  0  0
   -1.9186   -2.1493    2.2323 H   0  0  0  0  0  0  0  0  0  0  0  0
    0.1707    0.6005   -1.6448 H   0  0  0  0  0  0  0  0  0  0  0  0
    1.0688   -0.8684   -2.2061 H   0  0  0  0  0  0  0  0  0  0  0  0
   -0.6784   -0.6773   -2.5658 H   0  0  0  0  0  0  0  0  0  0  0  0
  1  2  1  0
  2  3  1  0
  3  4  2  0
  3  5  1  0
  5  6  2  0
  6  7  1  0
  7  8  1  0
  8  9  1  0
  9 10  2  0
 10 11  1  0
 11 12  1  0
 12 13  1  0
 13 14  1  0
 14 15  1  0
 14 16  1  0
 14 17  1  0
 13 18  1  0
 12 19  1  0
 10 20  1  0
  1 21  1  0
  1 22  1  0
  1 23  1  0
  5 24  1  0
  6 25  1  0
  7 26  1  0
  7 27  1  0
  8 28  1  0
  8 29  1  0
  9 30  1  0
 11 31  1  0
 11 32  1  0
 12 33  1  0
 13 34  1  6
 15 35  1  0
 16 36  1  0
 16 37  1  0
 16 38  1  0
 17 39  1  0
 17 40  1  0
 17 41  1  0
 18 42  1  0
 19 43  1  0
 19 44  1  0
 19 45  1  0
 20 46  1  0
 20 47  1  0
 20 48  1  0
M  END
$$$$
