
     RDKit          3D

 40 42  0  0  0  0  0  0  0  0999 V2000
    3.7052    1.6375    0.1581 O   0  0  0  0  0  0  0  0  0  0  0  0
    3.6451    0.4442    0.8904 C   0  0  0  0  0  0  0  0  0  0  0  0
    3.0986   -0.6739    0.0252 C   0  0  0  0  0  0  0  0  0  0  0  0
    1.9666   -1.3593    0.3074 C   0  0  0  0  0  0  0  0  0  0  0  0
    1.0652   -1.1138    1.4912 C   0  0  0  0  0  0  0  0  0  0  0  0
    0.1871    0.1443    1.3396 C   0  0  0  0  0  0  0  0  0  0  0  0
   -0.8571    0.0960    0.1714 C   0  0  0  0  0  0  0  0  0  0  0  0
   -0.1708    0.4273   -1.1822 C   0  0  0  0  0  0  0  0  0  0  0  0
   -1.7387   -1.1882    0.1209 C   0  0  0  0  0  0  0  0  0  0  0  0
   -2.5376   -1.1275    1.4285 C   0  0  0  0  0  0  0  0  0  0  0  0
   -3.0630    0.2884    1.2626 C   0  0  0  0  0  0  0  0  0  0  0  0
   -2.0262    1.0430    0.4445 C   0  0  0  0  0  0  0  0  0  0  0  0
   -1.9128    2.5547    0.6265 C   0  0  0  0  0  0  0  0  0  0  0  0
   -3.2649    0.4806   -0.2347 C   0  0  0  0  0  0  0  0  0  0  0  0
   -2.8472   -0.8300   -0.8773 C   0  0  0  0  0  0  0  0  0  0  0  0
    3.8702   -1.0541   -1.2112 C   0  0  0  0  0  0  0  0  0  0  0  0
    2.7755    1.9779    0.0923 H   0  0  0  0  0  0  0  0  0  0  0  0
    4.6757    0.1717    1.2004 H   0  0  0  0  0  0  0  0  0  0  0  0
    3.0733    0.6050    1.8271 H   0  0  0  0  0  0  0  0  0  0  0  0
    1.6758   -2.1729   -0.3532 H   0  0  0  0  0  0  0  0  0  0  0  0
    0.4141   -2.0010    1.6325 H   0  0  0  0  0  0  0  0  0  0  0  0
    1.6706   -1.0447    2.4193 H   0  0  0  0  0  0  0  0  0  0  0  0
   -0.3259    0.3085    2.3109 H   0  0  0  0  0  0  0  0  0  0  0  0
    0.8315    1.0396    1.2260 H   0  0  0  0  0  0  0  0  0  0  0  0
    0.2728   -0.4860   -1.6289 H   0  0  0  0  0  0  0  0  0  0  0  0
   -0.8813    0.8584   -1.9181 H   0  0  0  0  0  0  0  0  0  0  0  0
    0.6308    1.1840   -1.0530 H   0  0  0  0  0  0  0  0  0  0  0  0
   -1.2175   -2.1468   -0.0849 H   0  0  0  0  0  0  0  0  0  0  0  0
   -3.3673   -1.8690    1.4584 H   0  0  0  0  0  0  0  0  0  0  0  0
   -1.9172   -1.2489    2.3393 H   0  0  0  0  0  0  0  0  0  0  0  0
   -3.7435    0.8330    1.9503 H   0  0  0  0  0  0  0  0  0  0  0  0
   -1.4660    3.0046   -0.2840 H   0  0  0  0  0  0  0  0  0  0  0  0
   -1.2602    2.7756    1.4962 H   0  0  0  0  0  0  0  0  0  0  0  0
   -2.9094    3.0134    0.8011 H   0  0  0  0  0  0  0  0  0  0  0  0
   -4.0817    1.1561   -0.5649 H   0  0  0  0  0  0  0  0  0  0  0  0
   -2.4863   -0.7011   -1.9181 H   0  0  0  0  0  0  0  0  0  0  0  0
   -3.6804   -1.5682   -0.8753 H   0  0  0  0  0  0  0  0  0  0  0  0
    3.2345   -0.9075   -2.1102 H   0  0  0  0  0  0  0  0  0  0  0  0
    4.7833   -0.4316   -1.3219 H   0  0  0  0  0  0  0  0  0  0  0  0
    4.1790   -2.1192   -1.1512 H   0  0  0  0  0  0  0  0  0  0  0  0
  1  2  1  0
  2  3  1  0
  3  4  2  0
  4  5  1  0
  5  6  1  0
  6  7  1  0
  7  8  1  0
  7  9  1  0
  9 10  1  0
 10 11  1  0
 11 12  1  0
 12 13  1  0
 12 14  1  0
 14 15  1  0
  3 16  1  0
 12  7  1  0
 15  9  1  0
 14 11  1  0
  1 17  1  0
  2 18  1  0
  2 19  1  0
  4 20  1  0
  5 21  1  0
  5 22  1  0
  6 23  1  0
  6 24  1  0
  8 25  1  0
  8 26  1  0
  8 27  1  0
  9 28  1  0
 10 29  1  0
 10 30  1  0
 11 31  1  0
 13 32  1  0
 13 33  1  0
 13 34  1  0
 14 35  1  0
 15 36  1  0
 15 37  1  0
 16 38  1  0
 16 39  1  0
 16 40  1  0
M  END
$$$$
