
     RDKit          3D

 80 83  0  0  0  0  0  0  0  0999 V2000
   -7.5610    0.8503   -0.9942 C   0  0  0  0  0  0  0  0  0  0  0  0
   -6.4701    1.3539   -0.0475 C   0  0  0  0  0  0  0  0  0  0  0  0
   -5.5950    0.1910    0.5220 C   0  0  2  0  0  0  0  0  0  0  0  0
   -5.9394   -0.0911    2.0280 C   0  0  0  0  0  0  0  0  0  0  0  0
   -5.0613   -1.1999    2.6467 C   0  0  0  0  0  0  0  0  0  0  0  0
   -7.4179   -0.4919    2.2042 C   0  0  0  0  0  0  0  0  0  0  0  0
   -4.0889    0.5149    0.3096 C   0  0  0  0  0  0  0  0  0  0  0  0
   -3.6618    0.3874   -1.1712 C   0  0  0  0  0  0  0  0  0  0  0  0
   -2.2023    0.8437   -1.4612 C   0  0  2  0  0  0  0  0  0  0  0  0
   -1.1372    0.0187   -0.6588 C   0  0  1  0  0  0  0  0  0  0  0  0
   -1.2929   -1.5115   -0.8760 C   0  0  0  0  0  0  0  0  0  0  0  0
    0.1078   -2.1306   -0.7790 C   0  0  0  0  0  0  0  0  0  0  0  0
    0.9846   -0.9829   -0.3086 C   0  0  2  0  0  0  0  0  0  0  0  0
    0.3737    0.2757   -0.9480 C   0  0  1  0  0  0  0  0  0  0  0  0
    0.6316    0.3700   -2.4859 C   0  0  0  0  0  0  0  0  0  0  0  0
    0.9980    1.4904   -0.2145 C   0  0  0  0  0  0  0  0  0  0  0  0
    2.5411    1.4861   -0.3211 C   0  0  0  0  0  0  0  0  0  0  0  0
    3.1959    0.1435    0.1379 C   0  0  1  0  0  0  0  0  0  0  0  0
    2.5122   -1.1017   -0.5027 C   0  0  1  0  0  0  0  0  0  0  0  0
    3.0386   -2.3756    0.1765 C   0  0  0  0  0  0  0  0  0  0  0  0
    4.5364   -2.4055    0.2813 C   0  0  0  0  0  0  0  0  0  0  0  0
    5.3074   -1.2961    0.3165 C   0  0  0  0  0  0  0  0  0  0  0  0
    4.7633    0.0984   -0.0413 C   0  0  1  0  0  0  0  0  0  0  0  0
    5.1753    0.4169   -1.5052 C   0  0  0  0  0  0  0  0  0  0  0  0
    5.4129    1.1465    0.9167 C   0  0  0  0  0  0  0  0  0  0  0  0
    6.9376    1.0048    1.0467 C   0  0  0  0  0  0  0  0  0  0  0  0
    7.3199   -0.3986    1.5251 C   0  0  1  0  0  0  0  0  0  0  0  0
    6.7981   -1.4617    0.5499 C   0  0  0  0  0  0  0  0  0  0  0  0
    8.7176   -0.4851    1.6221 O   0  0  0  0  0  0  0  0  0  0  0  0
   -2.0699    2.3602   -1.2298 C   0  0  0  0  0  0  0  0  0  0  0  0
   -7.0997    0.3908   -1.8940 H   0  0  0  0  0  0  0  0  0  0  0  0
   -8.2052    0.0989   -0.4945 H   0  0  0  0  0  0  0  0  0  0  0  0
   -8.1962    1.7017   -1.3141 H   0  0  0  0  0  0  0  0  0  0  0  0
   -6.9384    1.9447    0.7703 H   0  0  0  0  0  0  0  0  0  0  0  0
   -5.8615    2.0953   -0.6088 H   0  0  0  0  0  0  0  0  0  0  0  0
   -5.8058   -0.7476   -0.0404 H   0  0  0  0  0  0  0  0  0  0  0  0
   -5.7667    0.8393    2.6150 H   0  0  0  0  0  0  0  0  0  0  0  0
   -4.0495   -0.8146    2.8880 H   0  0  0  0  0  0  0  0  0  0  0  0
   -5.4865   -1.5574    3.6079 H   0  0  0  0  0  0  0  0  0  0  0  0
   -4.9764   -2.0668    1.9563 H   0  0  0  0  0  0  0  0  0  0  0  0
   -8.1005    0.3308    1.9119 H   0  0  0  0  0  0  0  0  0  0  0  0
   -7.6360   -0.7162    3.2705 H   0  0  0  0  0  0  0  0  0  0  0  0
   -7.6527   -1.3932    1.5964 H   0  0  0  0  0  0  0  0  0  0  0  0
   -3.4666   -0.1974    0.8756 H   0  0  0  0  0  0  0  0  0  0  0  0
   -3.8728    1.5316    0.6996 H   0  0  0  0  0  0  0  0  0  0  0  0
   -3.7942   -0.6687   -1.4884 H   0  0  0  0  0  0  0  0  0  0  0  0
   -4.3435    0.9731   -1.8222 H   0  0  0  0  0  0  0  0  0  0  0  0
   -2.0451    0.6642   -2.5466 H   0  0  0  0  0  0  0  0  0  0  0  0
   -1.2992    0.2215    0.4238 H   0  0  0  0  0  0  0  0  0  0  0  0
   -1.7133   -1.7375   -1.8800 H   0  0  0  0  0  0  0  0  0  0  0  0
   -1.9641   -1.9458   -0.1030 H   0  0  0  0  0  0  0  0  0  0  0  0
    0.1233   -2.9726   -0.0525 H   0  0  0  0  0  0  0  0  0  0  0  0
    0.4454   -2.4979   -1.7733 H   0  0  0  0  0  0  0  0  0  0  0  0
    0.8174   -0.9235    0.7966 H   0  0  0  0  0  0  0  0  0  0  0  0
    1.7060    0.3572   -2.7472 H   0  0  0  0  0  0  0  0  0  0  0  0
    0.2289    1.3197   -2.8906 H   0  0  0  0  0  0  0  0  0  0  0  0
    0.1511   -0.4651   -3.0360 H   0  0  0  0  0  0  0  0  0  0  0  0
    0.7121    1.4798    0.8602 H   0  0  0  0  0  0  0  0  0  0  0  0
    0.6296    2.4434   -0.6390 H   0  0  0  0  0  0  0  0  0  0  0  0
    2.8185    1.7285   -1.3648 H   0  0  0  0  0  0  0  0  0  0  0  0
    2.9191    2.3168    0.3108 H   0  0  0  0  0  0  0  0  0  0  0  0
    2.9928    0.0762    1.2325 H   0  0  0  0  0  0  0  0  0  0  0  0
    2.7467   -1.1790   -1.5817 H   0  0  0  0  0  0  0  0  0  0  0  0
    2.7074   -3.2666   -0.3994 H   0  0  0  0  0  0  0  0  0  0  0  0
    2.6273   -2.4615    1.2061 H   0  0  0  0  0  0  0  0  0  0  0  0
    4.9841   -3.3758    0.4794 H   0  0  0  0  0  0  0  0  0  0  0  0
    4.9912    1.4809   -1.7582 H   0  0  0  0  0  0  0  0  0  0  0  0
    4.6343   -0.2189   -2.2323 H   0  0  0  0  0  0  0  0  0  0  0  0
    6.2570    0.2431   -1.6719 H   0  0  0  0  0  0  0  0  0  0  0  0
    5.1942    2.1790    0.5689 H   0  0  0  0  0  0  0  0  0  0  0  0
    4.9756    1.0492    1.9353 H   0  0  0  0  0  0  0  0  0  0  0  0
    7.3040    1.7507    1.7855 H   0  0  0  0  0  0  0  0  0  0  0  0
    7.4310    1.2293    0.0766 H   0  0  0  0  0  0  0  0  0  0  0  0
    6.8629   -0.5663    2.5297 H   0  0  0  0  0  0  0  0  0  0  0  0
    7.0285   -2.4630    0.9771 H   0  0  0  0  0  0  0  0  0  0  0  0
    7.3359   -1.3887   -0.4200 H   0  0  0  0  0  0  0  0  0  0  0  0
    8.9170   -1.2722    2.1934 H   0  0  0  0  0  0  0  0  0  0  0  0
   -2.9844    2.8948   -1.5641 H   0  0  0  0  0  0  0  0  0  0  0  0
   -1.9022    2.5871   -0.1559 H   0  0  0  0  0  0  0  0  0  0  0  0
   -1.2349    2.7755   -1.8269 H   0  0  0  0  0  0  0  0  0  0  0  0
  1  2  1  0
  2  3  1  0
  3  4  1  0
  4  5  1  0
  4  6  1  0
  3  7  1  0
  7  8  1  0
  8  9  1  0
  9 10  1  0
 10 11  1  0
 11 12  1  0
 12 13  1  0
 13 14  1  0
 14 15  1  6
 14 16  1  0
 16 17  1  0
 17 18  1  0
 18 19  1  0
 19 20  1  0
 20 21  1  0
 21 22  2  0
 22 23  1  0
 23 24  1  6
 23 25  1  0
 25 26  1  0
 26 27  1  0
 27 28  1  0
 27 29  1  0
  9 30  1  0
 14 10  1  0
 23 18  1  0
 19 13  1  0
 28 22  1  0
  1 31  1  0
  1 32  1  0
  1 33  1  0
  2 34  1  0
  2 35  1  0
  3 36  1  6
  4 37  1  0
  5 38  1  0
  5 39  1  0
  5 40  1  0
  6 41  1  0
  6 42  1  0
  6 43  1  0
  7 44  1  0
  7 45  1  0
  8 46  1  0
  8 47  1  0
  9 48  1  6
 10 49  1  1
 11 50  1  0
 11 51  1  0
 12 52  1  0
 12 53  1  0
 13 54  1  1
 15 55  1  0
 15 56  1  0
 15 57  1  0
 16 58  1  0
 16 59  1  0
 17 60  1  0
 17 61  1  0
 18 62  1  1
 19 63  1  6
 20 64  1  0
 20 65  1  0
 21 66  1  0
 24 67  1  0
 24 68  1  0
 24 69  1  0
 25 70  1  0
 25 71  1  0
 26 72  1  0
 26 73  1  0
 27 74  1  1
 28 75  1  0
 28 76  1  0
 29 77  1  0
 30 78  1  0
 30 79  1  0
 30 80  1  0
M  END
$$$$
