
     RDKit          3D

 40 42  0  0  0  0  0  0  0  0999 V2000
   -1.7249   -2.7554    1.5238 C   0  0  0  0  0  0  0  0  0  0  0  0
   -1.1842   -1.9090    0.6321 C   0  0  0  0  0  0  0  0  0  0  0  0
   -0.4225   -2.4557   -0.5577 C   0  0  0  0  0  0  0  0  0  0  0  0
    1.1067   -2.3453   -0.4090 C   0  0  0  0  0  0  0  0  0  0  0  0
    1.7267   -1.0721    0.2376 C   0  0  2  0  0  0  0  0  0  0  0  0
    1.0660    0.3224    0.3310 C   0  0  2  0  0  0  0  0  0  0  0  0
   -0.4260    0.4301   -0.0587 C   0  0  1  0  0  0  0  0  0  0  0  0
   -1.2900   -0.4131    0.8759 C   0  0  1  0  0  0  0  0  0  0  0  0
   -2.7057    0.1275    0.6811 C   0  0  0  0  0  0  0  0  0  0  0  0
   -2.5546    1.5654    0.1696 C   0  0  0  0  0  0  0  0  0  0  0  0
   -1.0405    1.8452    0.0220 C   0  0  1  0  0  0  0  0  0  0  0  0
   -0.5275    2.6810    1.2195 C   0  0  0  0  0  0  0  0  0  0  0  0
   -0.7751    2.5353   -1.1768 O   0  0  0  0  0  0  0  0  0  0  0  0
    2.1566    0.0611   -0.7194 C   0  0  0  0  0  0  0  0  0  0  0  0
    3.4953    0.7362   -0.3978 C   0  0  0  0  0  0  0  0  0  0  0  0
    1.7521    0.0619   -2.2062 C   0  0  0  0  0  0  0  0  0  0  0  0
   -1.6446   -3.8310    1.3998 H   0  0  0  0  0  0  0  0  0  0  0  0
   -2.2545   -2.3810    2.3949 H   0  0  0  0  0  0  0  0  0  0  0  0
   -0.7667   -1.9767   -1.4946 H   0  0  0  0  0  0  0  0  0  0  0  0
   -0.6709   -3.5300   -0.7084 H   0  0  0  0  0  0  0  0  0  0  0  0
    1.5908   -2.5574   -1.3853 H   0  0  0  0  0  0  0  0  0  0  0  0
    1.4161   -3.1920    0.2416 H   0  0  0  0  0  0  0  0  0  0  0  0
    2.4749   -1.2707    1.0362 H   0  0  0  0  0  0  0  0  0  0  0  0
    1.3832    0.8174    1.2733 H   0  0  0  0  0  0  0  0  0  0  0  0
   -0.5997    0.1097   -1.1000 H   0  0  0  0  0  0  0  0  0  0  0  0
   -0.9780   -0.2101    1.9268 H   0  0  0  0  0  0  0  0  0  0  0  0
   -3.2585   -0.4780   -0.0721 H   0  0  0  0  0  0  0  0  0  0  0  0
   -3.2676    0.1040    1.6404 H   0  0  0  0  0  0  0  0  0  0  0  0
   -3.0513    2.2803    0.8620 H   0  0  0  0  0  0  0  0  0  0  0  0
   -3.0591    1.6515   -0.8187 H   0  0  0  0  0  0  0  0  0  0  0  0
   -0.6299    2.1253    2.1749 H   0  0  0  0  0  0  0  0  0  0  0  0
    0.5358    2.9636    1.0697 H   0  0  0  0  0  0  0  0  0  0  0  0
   -1.1067    3.6253    1.3051 H   0  0  0  0  0  0  0  0  0  0  0  0
   -1.2801    3.3903   -1.1493 H   0  0  0  0  0  0  0  0  0  0  0  0
    3.7178    0.7374    0.6911 H   0  0  0  0  0  0  0  0  0  0  0  0
    3.4738    1.7884   -0.7515 H   0  0  0  0  0  0  0  0  0  0  0  0
    4.3146    0.1991   -0.9195 H   0  0  0  0  0  0  0  0  0  0  0  0
    1.4475    1.0873   -2.5027 H   0  0  0  0  0  0  0  0  0  0  0  0
    0.9339   -0.6364   -2.4580 H   0  0  0  0  0  0  0  0  0  0  0  0
    2.6271   -0.2319   -2.8228 H   0  0  0  0  0  0  0  0  0  0  0  0
  1  2  2  3
  2  3  1  0
  3  4  1  0
  4  5  1  0
  5  6  1  0
  6  7  1  0
  7  8  1  0
  8  9  1  0
  9 10  1  0
 10 11  1  0
 11 12  1  0
 11 13  1  6
  6 14  1  0
 14 15  1  0
 14 16  1  0
  8  2  1  0
 14  5  1  0
 11  7  1  0
  1 17  1  0
  1 18  1  0
  3 19  1  0
  3 20  1  0
  4 21  1  0
  4 22  1  0
  5 23  1  1
  6 24  1  1
  7 25  1  6
  8 26  1  1
  9 27  1  0
  9 28  1  0
 10 29  1  0
 10 30  1  0
 12 31  1  0
 12 32  1  0
 12 33  1  0
 13 34  1  0
 15 35  1  0
 15 36  1  0
 15 37  1  0
 16 38  1  0
 16 39  1  0
 16 40  1  0
M  END
$$$$
