
     RDKit          3D

 78 81  0  0  0  0  0  0  0  0999 V2000
   -7.2727    1.0523    0.3953 C   0  0  0  0  0  0  0  0  0  0  0  0
   -6.4036   -0.1123    0.8757 C   0  0  0  0  0  0  0  0  0  0  0  0
   -5.2119   -0.3842   -0.0766 C   0  0  2  0  0  0  0  0  0  0  0  0
   -4.4781   -1.7278    0.2241 C   0  0  0  0  0  0  0  0  0  0  0  0
   -5.3399   -2.9510   -0.1219 C   0  0  0  0  0  0  0  0  0  0  0  0
   -3.9637   -1.8284    1.6689 C   0  0  0  0  0  0  0  0  0  0  0  0
   -4.2325    0.7737   -0.0488 C   0  0  0  0  0  0  0  0  0  0  0  0
   -3.3321    0.9496   -1.0316 C   0  0  0  0  0  0  0  0  0  0  0  0
   -2.3558    2.1122   -1.1010 C   0  0  2  0  0  0  0  0  0  0  0  0
   -1.0874    2.0127   -0.1898 C   0  0  1  0  0  0  0  0  0  0  0  0
   -1.3218    1.8033    1.3261 C   0  0  0  0  0  0  0  0  0  0  0  0
   -0.0623    1.0970    1.8646 C   0  0  0  0  0  0  0  0  0  0  0  0
    0.8994    1.0811    0.6813 C   0  0  2  0  0  0  0  0  0  0  0  0
   -0.0035    0.9642   -0.5561 C   0  0  1  0  0  0  0  0  0  0  0  0
   -0.6307   -0.4545   -0.7298 C   0  0  0  0  0  0  0  0  0  0  0  0
    0.8573    1.3212   -1.7880 C   0  0  0  0  0  0  0  0  0  0  0  0
    2.0758    0.3759   -1.9057 C   0  0  0  0  0  0  0  0  0  0  0  0
    2.9304    0.2934   -0.5973 C   0  0  1  0  0  0  0  0  0  0  0  0
    2.0682    0.0735    0.6854 C   0  0  1  0  0  0  0  0  0  0  0  0
    2.9485    0.2768    1.9283 C   0  0  0  0  0  0  0  0  0  0  0  0
    4.2590   -0.4560    1.8446 C   0  0  0  0  0  0  0  0  0  0  0  0
    4.8571   -0.7947    0.6802 C   0  0  0  0  0  0  0  0  0  0  0  0
    4.1192   -0.7400   -0.6691 C   0  0  1  0  0  0  0  0  0  0  0  0
    3.6126   -2.1720   -0.9977 C   0  0  0  0  0  0  0  0  0  0  0  0
    5.1217   -0.2835   -1.7763 C   0  0  0  0  0  0  0  0  0  0  0  0
    6.4662   -1.0242   -1.7386 C   0  0  0  0  0  0  0  0  0  0  0  0
    7.1385   -0.8677   -0.3721 C   0  0  1  0  0  0  0  0  0  0  0  0
    6.2368   -1.4255    0.7357 C   0  0  0  0  0  0  0  0  0  0  0  0
    8.3605   -1.5579   -0.3814 O   0  0  0  0  0  0  0  0  0  0  0  0
   -3.0821    3.4526   -0.8989 C   0  0  0  0  0  0  0  0  0  0  0  0
   -6.6938    2.0001    0.3931 H   0  0  0  0  0  0  0  0  0  0  0  0
   -7.6557    0.8538   -0.6284 H   0  0  0  0  0  0  0  0  0  0  0  0
   -8.1407    1.1732    1.0781 H   0  0  0  0  0  0  0  0  0  0  0  0
   -6.0373    0.1150    1.9004 H   0  0  0  0  0  0  0  0  0  0  0  0
   -7.0556   -1.0073    0.9381 H   0  0  0  0  0  0  0  0  0  0  0  0
   -5.6217   -0.4485   -1.1106 H   0  0  0  0  0  0  0  0  0  0  0  0
   -3.5890   -1.7843   -0.4420 H   0  0  0  0  0  0  0  0  0  0  0  0
   -6.1787   -3.0739    0.5946 H   0  0  0  0  0  0  0  0  0  0  0  0
   -5.7518   -2.8578   -1.1495 H   0  0  0  0  0  0  0  0  0  0  0  0
   -4.7195   -3.8719   -0.0850 H   0  0  0  0  0  0  0  0  0  0  0  0
   -3.3552   -2.7500    1.7891 H   0  0  0  0  0  0  0  0  0  0  0  0
   -3.3171   -0.9623    1.9158 H   0  0  0  0  0  0  0  0  0  0  0  0
   -4.8056   -1.8699    2.3911 H   0  0  0  0  0  0  0  0  0  0  0  0
   -4.2873    1.4850    0.7686 H   0  0  0  0  0  0  0  0  0  0  0  0
   -3.3532    0.2673   -1.8773 H   0  0  0  0  0  0  0  0  0  0  0  0
   -1.9804    2.1323   -2.1476 H   0  0  0  0  0  0  0  0  0  0  0  0
   -0.5910    3.0088   -0.2808 H   0  0  0  0  0  0  0  0  0  0  0  0
   -2.1922    1.1583    1.5345 H   0  0  0  0  0  0  0  0  0  0  0  0
   -1.4748    2.7812    1.8333 H   0  0  0  0  0  0  0  0  0  0  0  0
   -0.3022    0.0584    2.1844 H   0  0  0  0  0  0  0  0  0  0  0  0
    0.3701    1.6539    2.7246 H   0  0  0  0  0  0  0  0  0  0  0  0
    1.3727    2.0949    0.6740 H   0  0  0  0  0  0  0  0  0  0  0  0
   -1.3388   -0.6960    0.0892 H   0  0  0  0  0  0  0  0  0  0  0  0
    0.1213   -1.2643   -0.7547 H   0  0  0  0  0  0  0  0  0  0  0  0
   -1.1685   -0.5194   -1.6967 H   0  0  0  0  0  0  0  0  0  0  0  0
    0.2477    1.2502   -2.7144 H   0  0  0  0  0  0  0  0  0  0  0  0
    1.2238    2.3691   -1.7151 H   0  0  0  0  0  0  0  0  0  0  0  0
    1.7148   -0.6230   -2.2124 H   0  0  0  0  0  0  0  0  0  0  0  0
    2.7062    0.7545   -2.7366 H   0  0  0  0  0  0  0  0  0  0  0  0
    3.3884    1.3040   -0.4877 H   0  0  0  0  0  0  0  0  0  0  0  0
    1.6684   -0.9560    0.7352 H   0  0  0  0  0  0  0  0  0  0  0  0
    2.4033   -0.0742    2.8304 H   0  0  0  0  0  0  0  0  0  0  0  0
    3.1770    1.3558    2.0674 H   0  0  0  0  0  0  0  0  0  0  0  0
    4.7972   -0.5850    2.7794 H   0  0  0  0  0  0  0  0  0  0  0  0
    3.2134   -2.2394   -2.0296 H   0  0  0  0  0  0  0  0  0  0  0  0
    4.4325   -2.9157   -0.9330 H   0  0  0  0  0  0  0  0  0  0  0  0
    2.8300   -2.5070   -0.2897 H   0  0  0  0  0  0  0  0  0  0  0  0
    4.6797   -0.4375   -2.7843 H   0  0  0  0  0  0  0  0  0  0  0  0
    5.3283    0.8056   -1.6745 H   0  0  0  0  0  0  0  0  0  0  0  0
    7.1305   -0.5969   -2.5218 H   0  0  0  0  0  0  0  0  0  0  0  0
    6.3252   -2.1007   -1.9767 H   0  0  0  0  0  0  0  0  0  0  0  0
    7.3186    0.2187   -0.1880 H   0  0  0  0  0  0  0  0  0  0  0  0
    6.1413   -2.5273    0.6306 H   0  0  0  0  0  0  0  0  0  0  0  0
    6.7288   -1.2296    1.7137 H   0  0  0  0  0  0  0  0  0  0  0  0
    8.9039   -1.1877    0.3629 H   0  0  0  0  0  0  0  0  0  0  0  0
   -3.9725    3.5133   -1.5624 H   0  0  0  0  0  0  0  0  0  0  0  0
   -2.4063    4.2962   -1.1564 H   0  0  0  0  0  0  0  0  0  0  0  0
   -3.4075    3.5766    0.1556 H   0  0  0  0  0  0  0  0  0  0  0  0
  1  2  1  0
  2  3  1  0
  3  4  1  0
  4  5  1  0
  4  6  1  0
  3  7  1  0
  7  8  2  0
  8  9  1  0
  9 10  1  0
 10 11  1  0
 11 12  1  0
 12 13  1  0
 13 14  1  0
 14 15  1  6
 14 16  1  0
 16 17  1  0
 17 18  1  0
 18 19  1  0
 19 20  1  0
 20 21  1  0
 21 22  2  0
 22 23  1  0
 23 24  1  6
 23 25  1  0
 25 26  1  0
 26 27  1  0
 27 28  1  0
 27 29  1  0
  9 30  1  0
 14 10  1  0
 23 18  1  0
 19 13  1  0
 28 22  1  0
  1 31  1  0
  1 32  1  0
  1 33  1  0
  2 34  1  0
  2 35  1  0
  3 36  1  6
  4 37  1  0
  5 38  1  0
  5 39  1  0
  5 40  1  0
  6 41  1  0
  6 42  1  0
  6 43  1  0
  7 44  1  0
  8 45  1  0
  9 46  1  6
 10 47  1  1
 11 48  1  0
 11 49  1  0
 12 50  1  0
 12 51  1  0
 13 52  1  6
 15 53  1  0
 15 54  1  0
 15 55  1  0
 16 56  1  0
 16 57  1  0
 17 58  1  0
 17 59  1  0
 18 60  1  1
 19 61  1  6
 20 62  1  0
 20 63  1  0
 21 64  1  0
 24 65  1  0
 24 66  1  0
 24 67  1  0
 25 68  1  0
 25 69  1  0
 26 70  1  0
 26 71  1  0
 27 72  1  1
 28 73  1  0
 28 74  1  0
 29 75  1  0
 30 76  1  0
 30 77  1  0
 30 78  1  0
M  END
$$$$
