
     RDKit          3D

 47 51  0  0  0  0  0  0  0  0999 V2000
    4.8589   -1.0000    2.8342 C   0  0  0  0  0  0  0  0  0  0  0  0
    3.4482   -1.1893    2.8744 O   0  0  0  0  0  0  0  0  0  0  0  0
    2.5591   -0.7664    1.8733 C   0  0  0  0  0  0  0  0  0  0  0  0
    3.0006   -0.0941    0.7187 C   0  0  0  0  0  0  0  0  0  0  0  0
    2.0843    0.3084   -0.2600 C   0  0  0  0  0  0  0  0  0  0  0  0
    2.5264    1.1077   -1.4639 C   0  0  0  0  0  0  0  0  0  0  0  0
    1.5803    2.3186   -1.7199 C   0  0  0  0  0  0  0  0  0  0  0  0
    1.9576    3.5237   -0.8215 C   0  0  0  0  0  0  0  0  0  0  0  0
    0.9146    3.6469    0.1237 O   0  0  0  0  0  0  0  0  0  0  0  0
   -0.1516    2.8353   -0.1855 C   0  0  0  0  0  0  0  0  0  0  0  0
   -1.1865    2.7924    0.5296 O   0  0  0  0  0  0  0  0  0  0  0  0
    0.0700    2.0231   -1.4205 C   0  0  2  0  0  0  0  0  0  0  0  0
   -0.2038    0.5027   -1.2266 C   0  0  1  0  0  0  0  0  0  0  0  0
    0.7192    0.0014   -0.1212 C   0  0  0  0  0  0  0  0  0  0  0  0
    0.2718   -0.6158    1.0609 C   0  0  0  0  0  0  0  0  0  0  0  0
    1.1900   -1.0176    2.0502 C   0  0  0  0  0  0  0  0  0  0  0  0
    0.7799   -1.6654    3.2267 O   0  0  0  0  0  0  0  0  0  0  0  0
   -0.5699   -1.9936    3.5405 C   0  0  0  0  0  0  0  0  0  0  0  0
   -1.6655    0.0577   -1.1331 C   0  0  0  0  0  0  0  0  0  0  0  0
   -2.7643    0.9629   -1.2238 C   0  0  0  0  0  0  0  0  0  0  0  0
   -4.0904    0.4952   -1.1862 C   0  0  0  0  0  0  0  0  0  0  0  0
   -4.2960   -0.8752   -1.0953 C   0  0  0  0  0  0  0  0  0  0  0  0
   -3.2653   -1.7520   -1.0543 C   0  0  0  0  0  0  0  0  0  0  0  0
   -1.9399   -1.3335   -1.0893 C   0  0  0  0  0  0  0  0  0  0  0  0
   -3.7586   -3.0405   -0.9842 O   0  0  0  0  0  0  0  0  0  0  0  0
   -5.1910   -2.9662   -0.9769 C   0  0  0  0  0  0  0  0  0  0  0  0
   -5.4917   -1.5656   -1.0509 O   0  0  0  0  0  0  0  0  0  0  0  0
    5.0979    0.0841    2.8036 H   0  0  0  0  0  0  0  0  0  0  0  0
    5.2879   -1.5123    1.9472 H   0  0  0  0  0  0  0  0  0  0  0  0
    5.3093   -1.4368    3.7489 H   0  0  0  0  0  0  0  0  0  0  0  0
    4.0491    0.1340    0.5830 H   0  0  0  0  0  0  0  0  0  0  0  0
    2.5041    0.4373   -2.3501 H   0  0  0  0  0  0  0  0  0  0  0  0
    3.5791    1.4508   -1.3609 H   0  0  0  0  0  0  0  0  0  0  0  0
    1.6931    2.6177   -2.7860 H   0  0  0  0  0  0  0  0  0  0  0  0
    2.9267    3.3961   -0.2936 H   0  0  0  0  0  0  0  0  0  0  0  0
    2.0014    4.4519   -1.4310 H   0  0  0  0  0  0  0  0  0  0  0  0
   -0.5464    2.4302   -2.2511 H   0  0  0  0  0  0  0  0  0  0  0  0
    0.1461    0.0198   -2.1669 H   0  0  0  0  0  0  0  0  0  0  0  0
   -0.7835   -0.7700    1.2222 H   0  0  0  0  0  0  0  0  0  0  0  0
   -0.9873   -2.6739    2.7681 H   0  0  0  0  0  0  0  0  0  0  0  0
   -0.5985   -2.5102    4.5216 H   0  0  0  0  0  0  0  0  0  0  0  0
   -1.1818   -1.0694    3.6081 H   0  0  0  0  0  0  0  0  0  0  0  0
   -2.6171    2.0244   -1.3447 H   0  0  0  0  0  0  0  0  0  0  0  0
   -4.9263    1.1800   -1.2438 H   0  0  0  0  0  0  0  0  0  0  0  0
   -1.1419   -2.0653   -1.0757 H   0  0  0  0  0  0  0  0  0  0  0  0
   -5.5919   -3.3947   -0.0345 H   0  0  0  0  0  0  0  0  0  0  0  0
   -5.6067   -3.4946   -1.8603 H   0  0  0  0  0  0  0  0  0  0  0  0
  1  2  1  0
  2  3  1  0
  3  4  2  0
  4  5  1  0
  5  6  1  0
  6  7  1  0
  7  8  1  0
  8  9  1  0
  9 10  1  0
 10 11  2  0
 10 12  1  0
 12 13  1  0
 13 14  1  0
 14 15  1  0
 15 16  2  0
 16 17  1  0
 17 18  1  0
 13 19  1  0
 19 20  2  0
 20 21  1  0
 21 22  2  0
 22 23  1  0
 23 24  2  0
 23 25  1  0
 25 26  1  0
 26 27  1  0
 16  3  1  0
 24 19  1  0
 14  5  2  0
 27 22  1  0
 12  7  1  0
  1 28  1  0
  1 29  1  0
  1 30  1  0
  4 31  1  0
  6 32  1  0
  6 33  1  0
  7 34  1  0
  8 35  1  0
  8 36  1  0
 12 37  1  6
 13 38  1  6
 15 39  1  0
 18 40  1  0
 18 41  1  0
 18 42  1  0
 20 43  1  0
 21 44  1  0
 24 45  1  0
 26 46  1  0
 26 47  1  0
M  END
$$$$
