
     RDKit          3D

 43 45  0  0  0  0  0  0  0  0999 V2000
    7.7332    0.0390    2.0127 C   0  0  0  0  0  0  0  0  0  0  0  0
    6.4464    0.1083    2.6182 O   0  0  0  0  0  0  0  0  0  0  0  0
    5.2351    0.0097    1.9175 C   0  0  0  0  0  0  0  0  0  0  0  0
    5.1815   -0.1678    0.5230 C   0  0  0  0  0  0  0  0  0  0  0  0
    3.9490   -0.2623   -0.1305 C   0  0  0  0  0  0  0  0  0  0  0  0
    2.7456   -0.1889    0.5969 C   0  0  0  0  0  0  0  0  0  0  0  0
    2.8076    0.0022    1.9880 C   0  0  0  0  0  0  0  0  0  0  0  0
    4.0405    0.0953    2.6393 C   0  0  0  0  0  0  0  0  0  0  0  0
    1.4221   -0.2752   -0.0706 C   0  0  0  0  0  0  0  0  0  0  0  0
    1.2422   -0.9737   -1.2730 C   0  0  0  0  0  0  0  0  0  0  0  0
   -0.0247   -1.0221   -1.8550 C   0  0  0  0  0  0  0  0  0  0  0  0
   -0.1678   -1.6561   -2.9352 O   0  0  0  0  0  0  0  0  0  0  0  0
   -1.1125   -0.3709   -1.2270 C   0  0  0  0  0  0  0  0  0  0  0  0
   -0.8478    0.2997   -0.0153 C   0  0  0  0  0  0  0  0  0  0  0  0
    0.3777    0.3176    0.5003 O   0  0  0  0  0  0  0  0  0  0  0  0
   -1.8674    0.9558    0.6622 C   0  0  0  0  0  0  0  0  0  0  0  0
   -3.1784    0.9708    0.1624 C   0  0  0  0  0  0  0  0  0  0  0  0
   -3.4709    0.3041   -1.0577 C   0  0  0  0  0  0  0  0  0  0  0  0
   -2.4289   -0.3722   -1.7572 C   0  0  0  0  0  0  0  0  0  0  0  0
   -2.6429   -1.0558   -2.9736 O   0  0  0  0  0  0  0  0  0  0  0  0
   -3.8646   -1.1925   -3.6917 C   0  0  0  0  0  0  0  0  0  0  0  0
   -4.7663    0.2848   -1.6099 O   0  0  0  0  0  0  0  0  0  0  0  0
   -5.9429    0.8899   -1.0845 C   0  0  0  0  0  0  0  0  0  0  0  0
   -4.1969    1.6394    0.8610 O   0  0  0  0  0  0  0  0  0  0  0  0
   -4.0281    2.3400    2.0897 C   0  0  0  0  0  0  0  0  0  0  0  0
    8.5095    0.1435    2.7980 H   0  0  0  0  0  0  0  0  0  0  0  0
    7.8660   -0.9421    1.5094 H   0  0  0  0  0  0  0  0  0  0  0  0
    7.8553    0.8644    1.2798 H   0  0  0  0  0  0  0  0  0  0  0  0
    6.0861   -0.2269   -0.0667 H   0  0  0  0  0  0  0  0  0  0  0  0
    3.9457   -0.3669   -1.2070 H   0  0  0  0  0  0  0  0  0  0  0  0
    1.9005    0.0681    2.5763 H   0  0  0  0  0  0  0  0  0  0  0  0
    4.0678    0.2349    3.7126 H   0  0  0  0  0  0  0  0  0  0  0  0
    2.0624   -1.4989   -1.7452 H   0  0  0  0  0  0  0  0  0  0  0  0
   -1.6218    1.4571    1.5886 H   0  0  0  0  0  0  0  0  0  0  0  0
   -4.2411   -0.1965   -4.0063 H   0  0  0  0  0  0  0  0  0  0  0  0
   -3.6754   -1.7914   -4.6060 H   0  0  0  0  0  0  0  0  0  0  0  0
   -4.6153   -1.7327   -3.0775 H   0  0  0  0  0  0  0  0  0  0  0  0
   -5.8156    1.9910   -1.0221 H   0  0  0  0  0  0  0  0  0  0  0  0
   -6.1904    0.4556   -0.0932 H   0  0  0  0  0  0  0  0  0  0  0  0
   -6.7881    0.6806   -1.7715 H   0  0  0  0  0  0  0  0  0  0  0  0
   -3.6760    1.6451    2.8810 H   0  0  0  0  0  0  0  0  0  0  0  0
   -3.3058    3.1732    1.9588 H   0  0  0  0  0  0  0  0  0  0  0  0
   -5.0047    2.7642    2.4006 H   0  0  0  0  0  0  0  0  0  0  0  0
  1  2  1  0
  2  3  1  0
  3  4  2  0
  4  5  1  0
  5  6  2  0
  6  7  1  0
  7  8  2  0
  6  9  1  0
  9 10  2  0
 10 11  1  0
 11 12  2  0
 11 13  1  0
 13 14  2  0
 14 15  1  0
 14 16  1  0
 16 17  2  0
 17 18  1  0
 18 19  2  0
 19 20  1  0
 20 21  1  0
 18 22  1  0
 22 23  1  0
 17 24  1  0
 24 25  1  0
  8  3  1  0
 15  9  1  0
 19 13  1  0
  1 26  1  0
  1 27  1  0
  1 28  1  0
  4 29  1  0
  5 30  1  0
  7 31  1  0
  8 32  1  0
 10 33  1  0
 16 34  1  0
 21 35  1  0
 21 36  1  0
 21 37  1  0
 23 38  1  0
 23 39  1  0
 23 40  1  0
 25 41  1  0
 25 42  1  0
 25 43  1  0
M  END
$$$$
