
     RDKit          3D

 43 44  0  0  0  0  0  0  0  0999 V2000
   -4.3517    3.3185   -0.6347 C   0  0  0  0  0  0  0  0  0  0  0  0
   -3.3924    2.2860   -0.4443 O   0  0  0  0  0  0  0  0  0  0  0  0
   -3.4232    1.0880   -1.1638 C   0  0  0  0  0  0  0  0  0  0  0  0
   -4.3164    0.8821   -2.0306 O   0  0  0  0  0  0  0  0  0  0  0  0
   -2.3895    0.0337   -0.8912 C   0  0  0  0  0  0  0  0  0  0  0  0
   -2.6495   -0.7414    0.4335 C   0  0  1  0  0  0  0  0  0  0  0  0
   -2.7826    0.1535    1.5151 O   0  0  0  0  0  0  0  0  0  0  0  0
   -3.9542   -1.5156    0.3204 C   0  0  0  0  0  0  0  0  0  0  0  0
   -4.1783   -2.6440    1.0021 C   0  0  0  0  0  0  0  0  0  0  0  0
   -3.1271   -3.2577    1.8277 C   0  0  0  0  0  0  0  0  0  0  0  0
   -3.3748   -4.3109    2.4722 O   0  0  0  0  0  0  0  0  0  0  0  0
   -1.7782   -2.6112    1.9440 C   0  0  0  0  0  0  0  0  0  0  0  0
   -1.4813   -1.7449    0.7065 C   0  0  2  0  0  0  0  0  0  0  0  0
   -0.2025   -1.0483    0.8984 N   0  0  0  0  0  0  0  0  0  0  0  0
    0.8327   -1.0193   -0.0964 C   0  0  0  0  0  0  0  0  0  0  0  0
    0.6812   -1.6331   -1.1885 O   0  0  0  0  0  0  0  0  0  0  0  0
    2.0704   -0.2588    0.1647 C   0  0  0  0  0  0  0  0  0  0  0  0
    3.0773   -0.2056   -0.7192 C   0  0  0  0  0  0  0  0  0  0  0  0
    4.3384    0.5412   -0.4876 C   0  0  0  0  0  0  0  0  0  0  0  0
    4.4307    1.6095    0.4291 C   0  0  0  0  0  0  0  0  0  0  0  0
    5.6407    2.2895    0.6019 C   0  0  0  0  0  0  0  0  0  0  0  0
    6.7653    1.9211   -0.1391 C   0  0  0  0  0  0  0  0  0  0  0  0
    6.6814    0.8758   -1.0608 C   0  0  0  0  0  0  0  0  0  0  0  0
    5.4746    0.1927   -1.2387 C   0  0  0  0  0  0  0  0  0  0  0  0
   -4.3158    3.6823   -1.6834 H   0  0  0  0  0  0  0  0  0  0  0  0
   -4.1192    4.1622    0.0469 H   0  0  0  0  0  0  0  0  0  0  0  0
   -5.3694    2.9388   -0.4034 H   0  0  0  0  0  0  0  0  0  0  0  0
   -2.3524   -0.6804   -1.7438 H   0  0  0  0  0  0  0  0  0  0  0  0
   -1.4030    0.5415   -0.8496 H   0  0  0  0  0  0  0  0  0  0  0  0
   -2.0085    0.7744    1.5039 H   0  0  0  0  0  0  0  0  0  0  0  0
   -4.7685   -1.1118   -0.2677 H   0  0  0  0  0  0  0  0  0  0  0  0
   -5.1430   -3.1303    0.9240 H   0  0  0  0  0  0  0  0  0  0  0  0
   -0.9962   -3.3957    2.0399 H   0  0  0  0  0  0  0  0  0  0  0  0
   -1.7617   -1.9873    2.8637 H   0  0  0  0  0  0  0  0  0  0  0  0
   -1.4048   -2.4375   -0.1628 H   0  0  0  0  0  0  0  0  0  0  0  0
   -0.0549   -0.5112    1.7832 H   0  0  0  0  0  0  0  0  0  0  0  0
    2.1518    0.2435    1.1183 H   0  0  0  0  0  0  0  0  0  0  0  0
    2.9959   -0.7686   -1.6420 H   0  0  0  0  0  0  0  0  0  0  0  0
    3.5727    1.9417    0.9963 H   0  0  0  0  0  0  0  0  0  0  0  0
    5.7040    3.1086    1.3067 H   0  0  0  0  0  0  0  0  0  0  0  0
    7.6999    2.4501   -0.0040 H   0  0  0  0  0  0  0  0  0  0  0  0
    7.5520    0.5947   -1.6393 H   0  0  0  0  0  0  0  0  0  0  0  0
    5.4300   -0.6156   -1.9587 H   0  0  0  0  0  0  0  0  0  0  0  0
  1  2  1  0
  2  3  1  0
  3  4  2  0
  3  5  1  0
  5  6  1  0
  6  7  1  1
  6  8  1  0
  8  9  2  0
  9 10  1  0
 10 11  2  0
 10 12  1  0
 12 13  1  0
 13 14  1  0
 14 15  1  0
 15 16  2  0
 15 17  1  0
 17 18  2  0
 18 19  1  0
 19 20  2  0
 20 21  1  0
 21 22  2  0
 22 23  1  0
 23 24  2  0
 13  6  1  0
 24 19  1  0
  1 25  1  0
  1 26  1  0
  1 27  1  0
  5 28  1  0
  5 29  1  0
  7 30  1  0
  8 31  1  0
  9 32  1  0
 12 33  1  0
 12 34  1  0
 13 35  1  6
 14 36  1  0
 17 37  1  0
 18 38  1  0
 20 39  1  0
 21 40  1  0
 22 41  1  0
 23 42  1  0
 24 43  1  0
M  END
$$$$
