
     RDKit          3D

 38 40  0  0  0  0  0  0  0  0999 V2000
   -2.7356    3.1107    0.1756 O   0  0  0  0  0  0  0  0  0  0  0  0
   -2.9009    1.8897   -0.0857 C   0  0  0  0  0  0  0  0  0  0  0  0
   -4.0664    1.4567   -0.8567 C   0  0  0  0  0  0  0  0  0  0  0  0
   -4.1677    0.2029   -1.2997 C   0  0  0  0  0  0  0  0  0  0  0  0
   -3.0674   -0.8274   -1.1455 C   0  0  1  0  0  0  0  0  0  0  0  0
   -1.7535   -0.2948   -0.5120 C   0  0  1  0  0  0  0  0  0  0  0  0
   -1.9730    0.8656    0.4801 C   0  0  0  0  0  0  0  0  0  0  0  0
   -1.2121   -1.4447    0.2085 N   0  0  0  0  0  0  0  0  0  0  0  0
   -2.2036   -2.4966    0.3963 C   0  0  0  0  0  0  0  0  0  0  0  0
   -3.5006   -1.9639   -0.2074 C   0  0  0  0  0  0  0  0  0  0  0  0
    0.1381   -1.5695    0.7000 C   0  0  0  0  0  0  0  0  0  0  0  0
    0.4450   -2.5754    1.3976 O   0  0  0  0  0  0  0  0  0  0  0  0
    1.1704   -0.5497    0.3996 C   0  0  0  0  0  0  0  0  0  0  0  0
    2.4124   -0.6252    0.8998 C   0  0  0  0  0  0  0  0  0  0  0  0
    3.4732    0.3733    0.6187 C   0  0  0  0  0  0  0  0  0  0  0  0
    3.1831    1.6988    0.2330 C   0  0  0  0  0  0  0  0  0  0  0  0
    4.2191    2.6069   -0.0084 C   0  0  0  0  0  0  0  0  0  0  0  0
    5.5496    2.2098    0.1401 C   0  0  0  0  0  0  0  0  0  0  0  0
    5.8479    0.9051    0.5378 C   0  0  0  0  0  0  0  0  0  0  0  0
    4.8166   -0.0071    0.7814 C   0  0  0  0  0  0  0  0  0  0  0  0
   -2.8022   -1.3444   -2.4311 O   0  0  0  0  0  0  0  0  0  0  0  0
   -4.8635    2.1613   -1.0594 H   0  0  0  0  0  0  0  0  0  0  0  0
   -5.0685   -0.0872   -1.8273 H   0  0  0  0  0  0  0  0  0  0  0  0
   -1.0637    0.0275   -1.3227 H   0  0  0  0  0  0  0  0  0  0  0  0
   -2.4194    0.4801    1.4227 H   0  0  0  0  0  0  0  0  0  0  0  0
   -0.9999    1.3389    0.7300 H   0  0  0  0  0  0  0  0  0  0  0  0
   -1.8776   -3.4156   -0.1375 H   0  0  0  0  0  0  0  0  0  0  0  0
   -2.3367   -2.7164    1.4779 H   0  0  0  0  0  0  0  0  0  0  0  0
   -4.0559   -2.7612   -0.7483 H   0  0  0  0  0  0  0  0  0  0  0  0
   -4.1435   -1.5678    0.6110 H   0  0  0  0  0  0  0  0  0  0  0  0
    0.9158    0.2601   -0.2645 H   0  0  0  0  0  0  0  0  0  0  0  0
    2.6829   -1.4766    1.5138 H   0  0  0  0  0  0  0  0  0  0  0  0
    2.1644    2.0488    0.1405 H   0  0  0  0  0  0  0  0  0  0  0  0
    3.9892    3.6226   -0.3035 H   0  0  0  0  0  0  0  0  0  0  0  0
    6.3491    2.9152   -0.0462 H   0  0  0  0  0  0  0  0  0  0  0  0
    6.8793    0.5999    0.6589 H   0  0  0  0  0  0  0  0  0  0  0  0
    5.0685   -1.0148    1.0891 H   0  0  0  0  0  0  0  0  0  0  0  0
   -2.0927   -2.0358   -2.3566 H   0  0  0  0  0  0  0  0  0  0  0  0
  1  2  2  0
  2  3  1  0
  3  4  2  0
  4  5  1  0
  5  6  1  0
  6  7  1  0
  6  8  1  0
  8  9  1  0
  9 10  1  0
  8 11  1  0
 11 12  2  0
 11 13  1  0
 13 14  2  0
 14 15  1  0
 15 16  2  0
 16 17  1  0
 17 18  2  0
 18 19  1  0
 19 20  2  0
  5 21  1  6
  7  2  1  0
 20 15  1  0
 10  5  1  0
  3 22  1  0
  4 23  1  0
  6 24  1  6
  7 25  1  0
  7 26  1  0
  9 27  1  0
  9 28  1  0
 10 29  1  0
 10 30  1  0
 13 31  1  0
 14 32  1  0
 16 33  1  0
 17 34  1  0
 18 35  1  0
 19 36  1  0
 20 37  1  0
 21 38  1  0
M  END
$$$$
