
     RDKit          3D

 37 39  0  0  0  0  0  0  0  0999 V2000
   -5.4694   -1.0657    0.6675 O   0  0  0  0  0  0  0  0  0  0  0  0
   -4.5596   -0.6506   -0.0976 C   0  0  0  0  0  0  0  0  0  0  0  0
   -4.9293    0.0364   -1.3744 C   0  0  0  0  0  0  0  0  0  0  0  0
   -3.9895    0.6251   -2.1388 C   0  0  0  0  0  0  0  0  0  0  0  0
   -2.5928    0.7278   -1.5948 C   0  0  1  0  0  0  0  0  0  0  0  0
   -2.2466   -0.6329   -0.9625 C   0  0  2  0  0  0  0  0  0  0  0  0
   -3.1023   -0.8582    0.2902 C   0  0  0  0  0  0  0  0  0  0  0  0
   -0.8026   -0.6011   -0.8020 N   0  0  0  0  0  0  0  0  0  0  0  0
   -0.0276   -1.6434   -0.1892 C   0  0  0  0  0  0  0  0  0  0  0  0
   -0.4774   -2.8202   -0.1643 O   0  0  0  0  0  0  0  0  0  0  0  0
    1.2874   -1.3737    0.4224 C   0  0  0  0  0  0  0  0  0  0  0  0
    1.6851   -0.1365    0.7517 C   0  0  0  0  0  0  0  0  0  0  0  0
    2.9990    0.1740    1.3670 C   0  0  0  0  0  0  0  0  0  0  0  0
    3.7606   -0.7882    2.0629 C   0  0  0  0  0  0  0  0  0  0  0  0
    4.9891   -0.4392    2.6331 C   0  0  0  0  0  0  0  0  0  0  0  0
    5.4677    0.8680    2.5247 C   0  0  0  0  0  0  0  0  0  0  0  0
    4.7156    1.8323    1.8513 C   0  0  0  0  0  0  0  0  0  0  0  0
    3.4864    1.4899    1.2799 C   0  0  0  0  0  0  0  0  0  0  0  0
   -0.3386    0.2162   -1.8821 C   0  0  0  0  0  0  0  0  0  0  0  0
    0.8676    0.2653   -2.2425 O   0  0  0  0  0  0  0  0  0  0  0  0
   -1.4428    0.9393   -2.5902 C   0  0  0  0  0  0  0  0  0  0  0  0
   -2.5883    1.7699   -0.6378 O   0  0  0  0  0  0  0  0  0  0  0  0
   -5.9591    0.0249   -1.7083 H   0  0  0  0  0  0  0  0  0  0  0  0
   -4.2517    1.0787   -3.0862 H   0  0  0  0  0  0  0  0  0  0  0  0
   -2.4836   -1.4526   -1.6856 H   0  0  0  0  0  0  0  0  0  0  0  0
   -2.9589   -1.8951    0.6616 H   0  0  0  0  0  0  0  0  0  0  0  0
   -2.8208   -0.1490    1.0975 H   0  0  0  0  0  0  0  0  0  0  0  0
    1.9212   -2.2269    0.6184 H   0  0  0  0  0  0  0  0  0  0  0  0
    1.0307    0.7001    0.5373 H   0  0  0  0  0  0  0  0  0  0  0  0
    3.4077   -1.8013    2.1935 H   0  0  0  0  0  0  0  0  0  0  0  0
    5.5677   -1.1826    3.1664 H   0  0  0  0  0  0  0  0  0  0  0  0
    6.4183    1.1351    2.9679 H   0  0  0  0  0  0  0  0  0  0  0  0
    5.0845    2.8468    1.7723 H   0  0  0  0  0  0  0  0  0  0  0  0
    2.9183    2.2525    0.7608 H   0  0  0  0  0  0  0  0  0  0  0  0
   -1.6525    0.4452   -3.5636 H   0  0  0  0  0  0  0  0  0  0  0  0
   -1.2026    2.0148   -2.7340 H   0  0  0  0  0  0  0  0  0  0  0  0
   -1.7111    1.7808   -0.1724 H   0  0  0  0  0  0  0  0  0  0  0  0
  1  2  2  0
  2  3  1  0
  3  4  2  0
  4  5  1  0
  5  6  1  0
  6  7  1  0
  6  8  1  0
  8  9  1  0
  9 10  2  0
  9 11  1  0
 11 12  2  0
 12 13  1  0
 13 14  2  0
 14 15  1  0
 15 16  2  0
 16 17  1  0
 17 18  2  0
  8 19  1  0
 19 20  2  0
 19 21  1  0
  5 22  1  1
  7  2  1  0
 18 13  1  0
 21  5  1  0
  3 23  1  0
  4 24  1  0
  6 25  1  6
  7 26  1  0
  7 27  1  0
 11 28  1  0
 12 29  1  0
 14 30  1  0
 15 31  1  0
 16 32  1  0
 17 33  1  0
 18 34  1  0
 21 35  1  0
 21 36  1  0
 22 37  1  0
M  END
$$$$
