
     RDKit          3D

 39 41  0  0  0  0  0  0  0  0999 V2000
    0.5668   -1.0354   -1.8869 O   0  0  0  0  0  0  0  0  0  0  0  0
    0.7383   -0.1549   -0.9992 C   0  0  0  0  0  0  0  0  0  0  0  0
   -0.3682    0.6459   -0.5605 N   0  0  0  0  0  0  0  0  0  0  0  0
   -1.7171    0.4786   -1.1043 C   0  0  2  0  0  0  0  0  0  0  0  0
   -2.5508    1.5481   -0.6703 O   0  0  0  0  0  0  0  0  0  0  0  0
   -3.4080    0.9676    0.2748 C   0  0  2  0  0  0  0  0  0  0  0  0
   -3.7175   -0.4334   -0.2232 C   0  0  2  0  0  0  0  0  0  0  0  0
   -2.3367   -0.8644   -0.6488 C   0  0  0  0  0  0  0  0  0  0  0  0
   -4.6012   -0.4317   -1.3274 O   0  0  0  0  0  0  0  0  0  0  0  0
   -4.3711   -1.1955    0.8974 C   0  0  0  0  0  0  0  0  0  0  0  0
   -5.3103   -0.5773    1.6355 C   0  0  0  0  0  0  0  0  0  0  0  0
   -5.5797    0.8798    1.4592 C   0  0  0  0  0  0  0  0  0  0  0  0
   -6.5427    1.4115    2.0718 O   0  0  0  0  0  0  0  0  0  0  0  0
   -4.7107    1.7286    0.5463 C   0  0  0  0  0  0  0  0  0  0  0  0
    2.0726    0.0573   -0.4051 C   0  0  0  0  0  0  0  0  0  0  0  0
    3.1473   -0.6455   -0.7911 C   0  0  0  0  0  0  0  0  0  0  0  0
    4.5050   -0.4532   -0.2242 C   0  0  0  0  0  0  0  0  0  0  0  0
    4.7236    0.1247    1.0439 C   0  0  0  0  0  0  0  0  0  0  0  0
    6.0236    0.2730    1.5382 C   0  0  0  0  0  0  0  0  0  0  0  0
    7.1157   -0.1585    0.7826 C   0  0  0  0  0  0  0  0  0  0  0  0
    6.9104   -0.7464   -0.4670 C   0  0  0  0  0  0  0  0  0  0  0  0
    5.6132   -0.8981   -0.9662 C   0  0  0  0  0  0  0  0  0  0  0  0
   -0.1999    1.3985    0.1453 H   0  0  0  0  0  0  0  0  0  0  0  0
   -1.6701    0.5095   -2.2151 H   0  0  0  0  0  0  0  0  0  0  0  0
   -2.8534    0.9179    1.2463 H   0  0  0  0  0  0  0  0  0  0  0  0
   -2.3682   -1.6075   -1.4755 H   0  0  0  0  0  0  0  0  0  0  0  0
   -1.7778   -1.2917    0.2149 H   0  0  0  0  0  0  0  0  0  0  0  0
   -4.2431    0.1686   -2.0326 H   0  0  0  0  0  0  0  0  0  0  0  0
   -4.1512   -2.2440    1.0541 H   0  0  0  0  0  0  0  0  0  0  0  0
   -5.8486   -1.1338    2.3923 H   0  0  0  0  0  0  0  0  0  0  0  0
   -4.4788    2.6969    1.0397 H   0  0  0  0  0  0  0  0  0  0  0  0
   -5.2524    1.9342   -0.4015 H   0  0  0  0  0  0  0  0  0  0  0  0
    2.1633    0.8285    0.3468 H   0  0  0  0  0  0  0  0  0  0  0  0
    3.0410   -1.3699   -1.5905 H   0  0  0  0  0  0  0  0  0  0  0  0
    3.9006    0.4412    1.6690 H   0  0  0  0  0  0  0  0  0  0  0  0
    6.1837    0.7168    2.5124 H   0  0  0  0  0  0  0  0  0  0  0  0
    8.1204   -0.0434    1.1683 H   0  0  0  0  0  0  0  0  0  0  0  0
    7.7570   -1.0861   -1.0497 H   0  0  0  0  0  0  0  0  0  0  0  0
    5.4750   -1.3565   -1.9380 H   0  0  0  0  0  0  0  0  0  0  0  0
  1  2  2  0
  2  3  1  0
  3  4  1  0
  4  5  1  0
  5  6  1  0
  6  7  1  0
  7  8  1  0
  7  9  1  6
  7 10  1  0
 10 11  2  0
 11 12  1  0
 12 13  2  0
 12 14  1  0
  2 15  1  0
 15 16  2  0
 16 17  1  0
 17 18  2  0
 18 19  1  0
 19 20  2  0
 20 21  1  0
 21 22  2  0
  8  4  1  0
 22 17  1  0
 14  6  1  0
  3 23  1  0
  4 24  1  6
  6 25  1  1
  8 26  1  0
  8 27  1  0
  9 28  1  0
 10 29  1  0
 11 30  1  0
 14 31  1  0
 14 32  1  0
 15 33  1  0
 16 34  1  0
 18 35  1  0
 19 36  1  0
 20 37  1  0
 21 38  1  0
 22 39  1  0
M  END
$$$$
