
     RDKit          3D

 39 41  0  0  0  0  0  0  0  0999 V2000
   -4.4134    2.6629    0.0999 O   0  0  0  0  0  0  0  0  0  0  0  0
   -4.1086    1.4107    0.6554 C   0  0  1  0  0  0  0  0  0  0  0  0
   -4.8442    0.2992   -0.1121 C   0  0  0  0  0  0  0  0  0  0  0  0
   -4.2067   -0.7347   -0.7016 C   0  0  0  0  0  0  0  0  0  0  0  0
   -2.7042   -0.7269   -0.7542 C   0  0  1  0  0  0  0  0  0  0  0  0
   -2.1986   -0.2415    0.6091 C   0  0  2  0  0  0  0  0  0  0  0  0
   -2.5591    1.2351    0.7890 C   0  0  0  0  0  0  0  0  0  0  0  0
   -0.7858   -0.5849    0.6110 N   0  0  0  0  0  0  0  0  0  0  0  0
    0.1269   -0.2705    1.6746 C   0  0  0  0  0  0  0  0  0  0  0  0
   -0.3148   -0.0940    2.8414 O   0  0  0  0  0  0  0  0  0  0  0  0
    1.5775   -0.1426    1.4386 C   0  0  0  0  0  0  0  0  0  0  0  0
    2.0930    0.0252    0.2124 C   0  0  0  0  0  0  0  0  0  0  0  0
    3.5448    0.1567   -0.0637 C   0  0  0  0  0  0  0  0  0  0  0  0
    4.0057   -0.0993   -1.3670 C   0  0  0  0  0  0  0  0  0  0  0  0
    5.3638    0.0193   -1.6773 C   0  0  0  0  0  0  0  0  0  0  0  0
    6.2759    0.4044   -0.6930 C   0  0  0  0  0  0  0  0  0  0  0  0
    5.8307    0.6774    0.6020 C   0  0  0  0  0  0  0  0  0  0  0  0
    4.4735    0.5597    0.9188 C   0  0  0  0  0  0  0  0  0  0  0  0
   -0.7021   -1.7646   -0.1924 C   0  0  0  0  0  0  0  0  0  0  0  0
    0.3115   -2.5125   -0.2203 O   0  0  0  0  0  0  0  0  0  0  0  0
   -1.9724   -2.0663   -0.9200 C   0  0  0  0  0  0  0  0  0  0  0  0
   -2.2789    0.1552   -1.7711 O   0  0  0  0  0  0  0  0  0  0  0  0
   -4.1018    2.6485   -0.8432 H   0  0  0  0  0  0  0  0  0  0  0  0
   -4.5258    1.3941    1.6852 H   0  0  0  0  0  0  0  0  0  0  0  0
   -5.9296    0.3191   -0.1282 H   0  0  0  0  0  0  0  0  0  0  0  0
   -4.7711   -1.5259   -1.1853 H   0  0  0  0  0  0  0  0  0  0  0  0
   -2.6912   -0.8207    1.4287 H   0  0  0  0  0  0  0  0  0  0  0  0
   -2.2319    1.5824    1.7925 H   0  0  0  0  0  0  0  0  0  0  0  0
   -2.0206    1.8536    0.0382 H   0  0  0  0  0  0  0  0  0  0  0  0
    2.2197   -0.1688    2.3075 H   0  0  0  0  0  0  0  0  0  0  0  0
    1.4251    0.0403   -0.6406 H   0  0  0  0  0  0  0  0  0  0  0  0
    3.3140   -0.4002   -2.1447 H   0  0  0  0  0  0  0  0  0  0  0  0
    5.7087   -0.1868   -2.6823 H   0  0  0  0  0  0  0  0  0  0  0  0
    7.3267    0.4975   -0.9352 H   0  0  0  0  0  0  0  0  0  0  0  0
    6.5375    0.9881    1.3607 H   0  0  0  0  0  0  0  0  0  0  0  0
    4.1611    0.8089    1.9228 H   0  0  0  0  0  0  0  0  0  0  0  0
   -2.5144   -2.8895   -0.4059 H   0  0  0  0  0  0  0  0  0  0  0  0
   -1.7827   -2.3232   -1.9844 H   0  0  0  0  0  0  0  0  0  0  0  0
   -2.6382   -0.1856   -2.6326 H   0  0  0  0  0  0  0  0  0  0  0  0
  1  2  1  0
  2  3  1  0
  3  4  2  0
  4  5  1  0
  5  6  1  0
  6  7  1  0
  6  8  1  0
  8  9  1  0
  9 10  2  0
  9 11  1  0
 11 12  2  0
 12 13  1  0
 13 14  2  0
 14 15  1  0
 15 16  2  0
 16 17  1  0
 17 18  2  0
  8 19  1  0
 19 20  2  0
 19 21  1  0
  5 22  1  6
  7  2  1  0
 18 13  1  0
 21  5  1  0
  1 23  1  0
  2 24  1  1
  3 25  1  0
  4 26  1  0
  6 27  1  1
  7 28  1  0
  7 29  1  0
 11 30  1  0
 12 31  1  0
 14 32  1  0
 15 33  1  0
 16 34  1  0
 17 35  1  0
 18 36  1  0
 21 37  1  0
 21 38  1  0
 22 39  1  0
M  END
$$$$
