
     RDKit          3D

 49 50  0  0  0  0  0  0  0  0999 V2000
   -3.6767   -0.0645    2.2453 C   0  0  0  0  0  0  0  0  0  0  0  0
   -3.7596    0.0025    0.8374 O   0  0  0  0  0  0  0  0  0  0  0  0
   -2.7320   -0.7659    0.2287 C   0  0  1  0  0  0  0  0  0  0  0  0
   -3.2831   -2.1747   -0.0748 C   0  0  0  0  0  0  0  0  0  0  0  0
   -2.3013   -2.9722   -0.8811 C   0  0  0  0  0  0  0  0  0  0  0  0
   -2.0550   -4.1314   -0.5846 O   0  0  0  0  0  0  0  0  0  0  0  0
   -1.6881   -2.3565   -2.1033 C   0  0  0  0  0  0  0  0  0  0  0  0
   -1.1552   -0.9466   -1.7909 C   0  0  0  0  0  0  0  0  0  0  0  0
   -2.2364   -0.0588   -1.0858 C   0  0  1  0  0  0  0  0  0  0  0  0
   -3.2990    0.0939   -2.0048 O   0  0  0  0  0  0  0  0  0  0  0  0
   -1.6078    1.3371   -0.7829 C   0  0  0  0  0  0  0  0  0  0  0  0
   -2.5936    2.3844   -0.3536 C   0  0  0  0  0  0  0  0  0  0  0  0
   -3.3060    2.9681   -1.2157 O   0  0  0  0  0  0  0  0  0  0  0  0
   -2.7055    2.7118    1.0005 O   0  0  0  0  0  0  0  0  0  0  0  0
   -3.6423    3.6658    1.4834 C   0  0  0  0  0  0  0  0  0  0  0  0
    0.0755   -1.0519   -0.9907 N   0  0  0  0  0  0  0  0  0  0  0  0
    1.2791   -0.3330   -1.3019 C   0  0  0  0  0  0  0  0  0  0  0  0
    1.3360    0.3957   -2.3301 O   0  0  0  0  0  0  0  0  0  0  0  0
    2.4464   -0.4482   -0.4061 C   0  0  0  0  0  0  0  0  0  0  0  0
    3.6060    0.1756   -0.6583 C   0  0  0  0  0  0  0  0  0  0  0  0
    4.8010    0.0727    0.2144 C   0  0  0  0  0  0  0  0  0  0  0  0
    6.0636    0.3550   -0.3355 C   0  0  0  0  0  0  0  0  0  0  0  0
    7.2154    0.2797    0.4535 C   0  0  0  0  0  0  0  0  0  0  0  0
    7.1187   -0.0670    1.8025 C   0  0  0  0  0  0  0  0  0  0  0  0
    5.8693   -0.3328    2.3667 C   0  0  0  0  0  0  0  0  0  0  0  0
    4.7136   -0.2607    1.5822 C   0  0  0  0  0  0  0  0  0  0  0  0
   -3.7454   -1.1121    2.6097 H   0  0  0  0  0  0  0  0  0  0  0  0
   -4.5291    0.4991    2.6760 H   0  0  0  0  0  0  0  0  0  0  0  0
   -2.7404    0.4116    2.6104 H   0  0  0  0  0  0  0  0  0  0  0  0
   -1.8459   -0.8793    0.8992 H   0  0  0  0  0  0  0  0  0  0  0  0
   -4.2321   -2.0940   -0.6476 H   0  0  0  0  0  0  0  0  0  0  0  0
   -3.5032   -2.7057    0.8761 H   0  0  0  0  0  0  0  0  0  0  0  0
   -0.8610   -2.9945   -2.4857 H   0  0  0  0  0  0  0  0  0  0  0  0
   -2.4640   -2.2971   -2.8966 H   0  0  0  0  0  0  0  0  0  0  0  0
   -0.9169   -0.4829   -2.7743 H   0  0  0  0  0  0  0  0  0  0  0  0
   -4.0806    0.4846   -1.5367 H   0  0  0  0  0  0  0  0  0  0  0  0
   -1.0931    1.7173   -1.6924 H   0  0  0  0  0  0  0  0  0  0  0  0
   -0.8351    1.2396    0.0102 H   0  0  0  0  0  0  0  0  0  0  0  0
   -3.4381    4.6600    1.0339 H   0  0  0  0  0  0  0  0  0  0  0  0
   -4.6751    3.3443    1.2322 H   0  0  0  0  0  0  0  0  0  0  0  0
   -3.5485    3.7422    2.5860 H   0  0  0  0  0  0  0  0  0  0  0  0
    0.0683   -1.6492   -0.1335 H   0  0  0  0  0  0  0  0  0  0  0  0
    2.3453   -1.0837    0.4623 H   0  0  0  0  0  0  0  0  0  0  0  0
    3.7039    0.7556   -1.5688 H   0  0  0  0  0  0  0  0  0  0  0  0
    6.1594    0.6250   -1.3802 H   0  0  0  0  0  0  0  0  0  0  0  0
    8.1833    0.4921    0.0186 H   0  0  0  0  0  0  0  0  0  0  0  0
    8.0110   -0.1224    2.4125 H   0  0  0  0  0  0  0  0  0  0  0  0
    5.7946   -0.5872    3.4160 H   0  0  0  0  0  0  0  0  0  0  0  0
    3.7597   -0.4415    2.0581 H   0  0  0  0  0  0  0  0  0  0  0  0
  1  2  1  0
  2  3  1  0
  3  4  1  0
  4  5  1  0
  5  6  2  0
  5  7  1  0
  7  8  1  0
  8  9  1  0
  9 10  1  6
  9 11  1  0
 11 12  1  0
 12 13  2  0
 12 14  1  0
 14 15  1  0
  8 16  1  0
 16 17  1  0
 17 18  2  0
 17 19  1  0
 19 20  2  0
 20 21  1  0
 21 22  2  0
 22 23  1  0
 23 24  2  0
 24 25  1  0
 25 26  2  0
  9  3  1  0
 26 21  1  0
  1 27  1  0
  1 28  1  0
  1 29  1  0
  3 30  1  1
  4 31  1  0
  4 32  1  0
  7 33  1  0
  7 34  1  0
  8 35  1  0
 10 36  1  0
 11 37  1  0
 11 38  1  0
 15 39  1  0
 15 40  1  0
 15 41  1  0
 16 42  1  0
 19 43  1  0
 20 44  1  0
 22 45  1  0
 23 46  1  0
 24 47  1  0
 25 48  1  0
 26 49  1  0
M  END
$$$$
