
     RDKit          3D

 50 52  0  0  0  0  0  0  0  0999 V2000
   -0.6403   -3.9912   -0.6549 C   0  0  0  0  0  0  0  0  0  0  0  0
   -0.6905   -2.7109   -0.0335 O   0  0  0  0  0  0  0  0  0  0  0  0
    0.2183   -1.6647   -0.2752 C   0  0  0  0  0  0  0  0  0  0  0  0
    1.2996   -1.8193   -1.1575 C   0  0  0  0  0  0  0  0  0  0  0  0
    2.2191   -0.7848   -1.3524 C   0  0  0  0  0  0  0  0  0  0  0  0
    3.2894   -0.9721   -2.2278 O   0  0  0  0  0  0  0  0  0  0  0  0
    2.0638    0.4392   -0.6739 C   0  0  0  0  0  0  0  0  0  0  0  0
    0.9570    0.6205    0.1847 C   0  0  0  0  0  0  0  0  0  0  0  0
    0.0462   -0.4405    0.3995 C   0  0  0  0  0  0  0  0  0  0  0  0
   -1.0684   -0.2926    1.3577 C   0  0  0  0  0  0  0  0  0  0  0  0
   -0.8156   -0.0392    2.5668 O   0  0  0  0  0  0  0  0  0  0  0  0
   -2.4967   -0.4417    0.9150 C   0  0  0  0  0  0  0  0  0  0  0  0
   -3.2679    0.8651    1.1265 C   0  0  0  0  0  0  0  0  0  0  0  0
   -4.6766    0.7387    0.6113 C   0  0  0  0  0  0  0  0  0  0  0  0
   -5.0050    1.1916   -0.6775 C   0  0  0  0  0  0  0  0  0  0  0  0
   -6.3069    1.0425   -1.1660 C   0  0  0  0  0  0  0  0  0  0  0  0
   -7.2855    0.4291   -0.3773 C   0  0  0  0  0  0  0  0  0  0  0  0
   -6.9638   -0.0345    0.9010 C   0  0  0  0  0  0  0  0  0  0  0  0
   -5.6633    0.1159    1.3938 C   0  0  0  0  0  0  0  0  0  0  0  0
    0.7636    1.8672    0.7914 O   0  0  0  0  0  0  0  0  0  0  0  0
    3.0894    1.5403   -0.8618 C   0  0  0  0  0  0  0  0  0  0  0  0
    4.3433    1.2532   -0.0678 C   0  0  0  0  0  0  0  0  0  0  0  0
    5.4681    0.7040   -0.7110 C   0  0  0  0  0  0  0  0  0  0  0  0
    6.6220    0.3988    0.0147 C   0  0  0  0  0  0  0  0  0  0  0  0
    6.6685    0.6398    1.3877 C   0  0  0  0  0  0  0  0  0  0  0  0
    5.5627    1.1908    2.0390 C   0  0  0  0  0  0  0  0  0  0  0  0
    4.3990    1.5006    1.3202 C   0  0  0  0  0  0  0  0  0  0  0  0
    3.3043    2.0551    1.9829 O   0  0  0  0  0  0  0  0  0  0  0  0
    0.3205   -4.4922   -0.4180 H   0  0  0  0  0  0  0  0  0  0  0  0
   -0.7583   -3.8845   -1.7536 H   0  0  0  0  0  0  0  0  0  0  0  0
   -1.4709   -4.6163   -0.2673 H   0  0  0  0  0  0  0  0  0  0  0  0
    1.4463   -2.7496   -1.6894 H   0  0  0  0  0  0  0  0  0  0  0  0
    3.4252   -1.8431   -2.7275 H   0  0  0  0  0  0  0  0  0  0  0  0
   -2.9701   -1.2596    1.5003 H   0  0  0  0  0  0  0  0  0  0  0  0
   -2.5361   -0.7174   -0.1624 H   0  0  0  0  0  0  0  0  0  0  0  0
   -2.7446    1.6952    0.6012 H   0  0  0  0  0  0  0  0  0  0  0  0
   -3.2906    1.1201    2.2100 H   0  0  0  0  0  0  0  0  0  0  0  0
   -4.2542    1.6567   -1.3033 H   0  0  0  0  0  0  0  0  0  0  0  0
   -6.5557    1.3988   -2.1577 H   0  0  0  0  0  0  0  0  0  0  0  0
   -8.2915    0.3108   -0.7589 H   0  0  0  0  0  0  0  0  0  0  0  0
   -7.7203   -0.5181    1.5066 H   0  0  0  0  0  0  0  0  0  0  0  0
   -5.4238   -0.2569    2.3817 H   0  0  0  0  0  0  0  0  0  0  0  0
   -0.0496    2.0968    1.3494 H   0  0  0  0  0  0  0  0  0  0  0  0
    3.3296    1.6380   -1.9439 H   0  0  0  0  0  0  0  0  0  0  0  0
    2.6843    2.5318   -0.5680 H   0  0  0  0  0  0  0  0  0  0  0  0
    5.4544    0.5119   -1.7760 H   0  0  0  0  0  0  0  0  0  0  0  0
    7.4814   -0.0261   -0.4887 H   0  0  0  0  0  0  0  0  0  0  0  0
    7.5632    0.4018    1.9480 H   0  0  0  0  0  0  0  0  0  0  0  0
    5.6111    1.3799    3.1051 H   0  0  0  0  0  0  0  0  0  0  0  0
    3.3157    2.2210    2.9817 H   0  0  0  0  0  0  0  0  0  0  0  0
  1  2  1  0
  2  3  1  0
  3  4  2  0
  4  5  1  0
  5  6  1  0
  5  7  2  0
  7  8  1  0
  8  9  2  0
  9 10  1  0
 10 11  2  0
 10 12  1  0
 12 13  1  0
 13 14  1  0
 14 15  2  0
 15 16  1  0
 16 17  2  0
 17 18  1  0
 18 19  2  0
  8 20  1  0
  7 21  1  0
 21 22  1  0
 22 23  2  0
 23 24  1  0
 24 25  2  0
 25 26  1  0
 26 27  2  0
 27 28  1  0
  9  3  1  0
 19 14  1  0
 27 22  1  0
  1 29  1  0
  1 30  1  0
  1 31  1  0
  4 32  1  0
  6 33  1  0
 12 34  1  0
 12 35  1  0
 13 36  1  0
 13 37  1  0
 15 38  1  0
 16 39  1  0
 17 40  1  0
 18 41  1  0
 19 42  1  0
 20 43  1  0
 21 44  1  0
 21 45  1  0
 23 46  1  0
 24 47  1  0
 25 48  1  0
 26 49  1  0
 28 50  1  0
M  END
$$$$
