
     RDKit          3D

 36 37  0  0  0  0  0  0  0  0999 V2000
    1.9513    1.8964    0.5400 O   0  0  0  0  0  0  0  0  0  0  0  0
    1.9481    0.7956   -0.0774 C   0  0  0  0  0  0  0  0  0  0  0  0
    3.1426   -0.0761   -0.0470 C   0  0  0  0  0  0  0  0  0  0  0  0
    3.1335   -1.3156   -0.7126 C   0  0  0  0  0  0  0  0  0  0  0  0
    4.2606   -2.1429   -0.6827 C   0  0  0  0  0  0  0  0  0  0  0  0
    5.4056   -1.7433    0.0101 C   0  0  0  0  0  0  0  0  0  0  0  0
    5.4260   -0.5153    0.6752 C   0  0  0  0  0  0  0  0  0  0  0  0
    4.3018    0.3160    0.6490 C   0  0  0  0  0  0  0  0  0  0  0  0
    0.8150    0.3970   -0.7976 O   0  0  0  0  0  0  0  0  0  0  0  0
   -0.4119    1.1262   -0.8036 C   0  0  0  0  0  0  0  0  0  0  0  0
   -1.1679    0.9476    0.5255 C   0  0  2  0  0  0  0  0  0  0  0  0
   -1.3676   -0.5106    0.8450 C   0  0  0  0  0  0  0  0  0  0  0  0
   -2.1963   -1.2975    0.1534 C   0  0  0  0  0  0  0  0  0  0  0  0
   -2.4276   -2.7217    0.4083 C   0  0  0  0  0  0  0  0  0  0  0  0
   -3.3138   -3.1534   -0.4812 C   0  0  0  0  0  0  0  0  0  0  0  0
   -3.6662   -2.0151   -1.3199 C   0  0  0  0  0  0  0  0  0  0  0  0
   -4.4824   -2.0397   -2.2772 O   0  0  0  0  0  0  0  0  0  0  0  0
   -2.9749   -0.8848   -0.9200 O   0  0  0  0  0  0  0  0  0  0  0  0
   -2.4372    1.6007    0.4707 O   0  0  0  0  0  0  0  0  0  0  0  0
   -2.5956    2.9898    0.5281 C   0  0  0  0  0  0  0  0  0  0  0  0
   -1.6045    3.7468    0.7145 O   0  0  0  0  0  0  0  0  0  0  0  0
   -3.9624    3.5759    0.4263 C   0  0  0  0  0  0  0  0  0  0  0  0
    2.2570   -1.6477   -1.2547 H   0  0  0  0  0  0  0  0  0  0  0  0
    4.2457   -3.0952   -1.1971 H   0  0  0  0  0  0  0  0  0  0  0  0
    6.2767   -2.3853    0.0320 H   0  0  0  0  0  0  0  0  0  0  0  0
    6.3138   -0.2069    1.2122 H   0  0  0  0  0  0  0  0  0  0  0  0
    4.3405    1.2633    1.1721 H   0  0  0  0  0  0  0  0  0  0  0  0
   -1.0373    0.7562   -1.6427 H   0  0  0  0  0  0  0  0  0  0  0  0
   -0.2089    2.2019   -0.9943 H   0  0  0  0  0  0  0  0  0  0  0  0
   -0.5655    1.3916    1.3482 H   0  0  0  0  0  0  0  0  0  0  0  0
   -0.8132   -0.9334    1.6745 H   0  0  0  0  0  0  0  0  0  0  0  0
   -1.9661   -3.3264    1.1782 H   0  0  0  0  0  0  0  0  0  0  0  0
   -3.6946   -4.1632   -0.5580 H   0  0  0  0  0  0  0  0  0  0  0  0
   -4.3681    3.7470    1.4449 H   0  0  0  0  0  0  0  0  0  0  0  0
   -4.6326    2.8805   -0.1212 H   0  0  0  0  0  0  0  0  0  0  0  0
   -3.9236    4.5414   -0.1209 H   0  0  0  0  0  0  0  0  0  0  0  0
  1  2  2  0
  2  3  1  0
  3  4  2  0
  4  5  1  0
  5  6  2  0
  6  7  1  0
  7  8  2  0
  2  9  1  0
  9 10  1  0
 10 11  1  0
 11 12  1  0
 12 13  2  0
 13 14  1  0
 14 15  2  0
 15 16  1  0
 16 17  2  0
 16 18  1  0
 11 19  1  0
 19 20  1  0
 20 21  2  0
 20 22  1  0
  8  3  1  0
 18 13  1  0
  4 23  1  0
  5 24  1  0
  6 25  1  0
  7 26  1  0
  8 27  1  0
 10 28  1  0
 10 29  1  0
 11 30  1  1
 12 31  1  0
 14 32  1  0
 15 33  1  0
 22 34  1  0
 22 35  1  0
 22 36  1  0
M  END
$$$$
