
     RDKit          3D

 31 32  0  0  0  0  0  0  0  0999 V2000
   -1.3306    1.0610   -0.8093 O   0  0  0  0  0  0  0  0  0  0  0  0
   -1.3978   -0.2550   -0.3188 C   0  0  1  0  0  0  0  0  0  0  0  0
   -2.8139   -0.7712   -0.3787 C   0  0  0  0  0  0  0  0  0  0  0  0
   -3.7935   -0.2010    0.3244 C   0  0  0  0  0  0  0  0  0  0  0  0
   -5.1949   -0.6285    0.3384 C   0  0  0  0  0  0  0  0  0  0  0  0
   -5.8566    0.1835    1.1546 C   0  0  0  0  0  0  0  0  0  0  0  0
   -4.8922    1.1434    1.6768 C   0  0  0  0  0  0  0  0  0  0  0  0
   -5.1526    2.0723    2.4847 O   0  0  0  0  0  0  0  0  0  0  0  0
   -3.6320    0.8963    1.1602 O   0  0  0  0  0  0  0  0  0  0  0  0
   -0.4395   -1.1704   -1.0990 C   0  0  0  0  0  0  0  0  0  0  0  0
    0.8928   -0.6620   -1.0544 O   0  0  0  0  0  0  0  0  0  0  0  0
    1.7215   -0.7610    0.0707 C   0  0  0  0  0  0  0  0  0  0  0  0
    1.3262   -1.3822    1.0958 O   0  0  0  0  0  0  0  0  0  0  0  0
    3.0646   -0.1411    0.0511 C   0  0  0  0  0  0  0  0  0  0  0  0
    3.5077    0.5572   -1.0871 C   0  0  0  0  0  0  0  0  0  0  0  0
    4.7765    1.1450   -1.1071 C   0  0  0  0  0  0  0  0  0  0  0  0
    5.6144    1.0427    0.0056 C   0  0  0  0  0  0  0  0  0  0  0  0
    5.1852    0.3523    1.1413 C   0  0  0  0  0  0  0  0  0  0  0  0
    3.9175   -0.2375    1.1671 C   0  0  0  0  0  0  0  0  0  0  0  0
   -1.6354    1.0445   -1.7549 H   0  0  0  0  0  0  0  0  0  0  0  0
   -1.0801   -0.2456    0.7459 H   0  0  0  0  0  0  0  0  0  0  0  0
   -3.0453   -1.6314   -0.9970 H   0  0  0  0  0  0  0  0  0  0  0  0
   -5.6273   -1.4543   -0.2115 H   0  0  0  0  0  0  0  0  0  0  0  0
   -6.9133    0.1314    1.3808 H   0  0  0  0  0  0  0  0  0  0  0  0
   -0.4664   -2.2039   -0.6881 H   0  0  0  0  0  0  0  0  0  0  0  0
   -0.7583   -1.2207   -2.1623 H   0  0  0  0  0  0  0  0  0  0  0  0
    2.8758    0.6506   -1.9614 H   0  0  0  0  0  0  0  0  0  0  0  0
    5.1101    1.6806   -1.9866 H   0  0  0  0  0  0  0  0  0  0  0  0
    6.5959    1.4985   -0.0121 H   0  0  0  0  0  0  0  0  0  0  0  0
    5.8354    0.2739    2.0032 H   0  0  0  0  0  0  0  0  0  0  0  0
    3.6063   -0.7674    2.0586 H   0  0  0  0  0  0  0  0  0  0  0  0
  1  2  1  0
  2  3  1  0
  3  4  2  0
  4  5  1  0
  5  6  2  0
  6  7  1  0
  7  8  2  0
  7  9  1  0
  2 10  1  0
 10 11  1  0
 11 12  1  0
 12 13  2  0
 12 14  1  0
 14 15  2  0
 15 16  1  0
 16 17  2  0
 17 18  1  0
 18 19  2  0
  9  4  1  0
 19 14  1  0
  1 20  1  0
  2 21  1  1
  3 22  1  0
  5 23  1  0
  6 24  1  0
 10 25  1  0
 10 26  1  0
 15 27  1  0
 16 28  1  0
 17 29  1  0
 18 30  1  0
 19 31  1  0
M  END
$$$$
