
     RDKit          3D

 43 44  0  0  0  0  0  0  0  0999 V2000
   -2.0909    2.0417    2.6693 C   0  0  0  0  0  0  0  0  0  0  0  0
   -2.4218    1.5925    1.3611 O   0  0  0  0  0  0  0  0  0  0  0  0
   -3.2792    0.5126    1.1306 C   0  0  0  0  0  0  0  0  0  0  0  0
   -3.7920   -0.1159    2.0966 O   0  0  0  0  0  0  0  0  0  0  0  0
   -3.5991    0.1111   -0.2812 C   0  0  0  0  0  0  0  0  0  0  0  0
   -2.8619   -1.1632   -0.7923 C   0  0  2  0  0  0  0  0  0  0  0  0
   -3.4161   -1.5077   -2.0420 O   0  0  0  0  0  0  0  0  0  0  0  0
   -3.1156   -2.3453    0.1239 C   0  0  0  0  0  0  0  0  0  0  0  0
   -2.2913   -3.3986    0.1549 C   0  0  0  0  0  0  0  0  0  0  0  0
   -1.0352   -3.4086   -0.6176 C   0  0  0  0  0  0  0  0  0  0  0  0
   -0.2941   -4.4263   -0.5867 O   0  0  0  0  0  0  0  0  0  0  0  0
   -0.6514   -2.2322   -1.4741 C   0  0  0  0  0  0  0  0  0  0  0  0
   -1.3209   -0.9389   -0.9690 C   0  0  0  0  0  0  0  0  0  0  0  0
   -0.6744   -0.5249    0.2839 N   0  0  0  0  0  0  0  0  0  0  0  0
    0.4537    0.3615    0.3098 C   0  0  0  0  0  0  0  0  0  0  0  0
    0.7927    0.9828   -0.7340 O   0  0  0  0  0  0  0  0  0  0  0  0
    1.1722    0.5830    1.5824 C   0  0  0  0  0  0  0  0  0  0  0  0
    2.4171    1.0711    1.6991 C   0  0  0  0  0  0  0  0  0  0  0  0
    3.3559    1.2939    0.5795 C   0  0  0  0  0  0  0  0  0  0  0  0
    3.5907    0.2976   -0.3859 C   0  0  0  0  0  0  0  0  0  0  0  0
    4.5188    0.5136   -1.4092 C   0  0  0  0  0  0  0  0  0  0  0  0
    5.2337    1.7130   -1.4645 C   0  0  0  0  0  0  0  0  0  0  0  0
    5.0283    2.6946   -0.4911 C   0  0  0  0  0  0  0  0  0  0  0  0
    4.1006    2.4824    0.5339 C   0  0  0  0  0  0  0  0  0  0  0  0
   -1.3669    2.8787    2.5948 H   0  0  0  0  0  0  0  0  0  0  0  0
   -1.6283    1.2162    3.2503 H   0  0  0  0  0  0  0  0  0  0  0  0
   -3.0046    2.3986    3.1899 H   0  0  0  0  0  0  0  0  0  0  0  0
   -3.3628    0.9649   -0.9530 H   0  0  0  0  0  0  0  0  0  0  0  0
   -4.6971   -0.0522   -0.3520 H   0  0  0  0  0  0  0  0  0  0  0  0
   -3.2588   -0.7540   -2.6699 H   0  0  0  0  0  0  0  0  0  0  0  0
   -4.0298   -2.3860    0.7036 H   0  0  0  0  0  0  0  0  0  0  0  0
   -2.5368   -4.2479    0.7803 H   0  0  0  0  0  0  0  0  0  0  0  0
   -0.9666   -2.4351   -2.5201 H   0  0  0  0  0  0  0  0  0  0  0  0
    0.4538   -2.1085   -1.4722 H   0  0  0  0  0  0  0  0  0  0  0  0
   -1.1728   -0.1495   -1.7389 H   0  0  0  0  0  0  0  0  0  0  0  0
   -0.9065   -1.0417    1.1625 H   0  0  0  0  0  0  0  0  0  0  0  0
    0.6318    0.3716    2.4964 H   0  0  0  0  0  0  0  0  0  0  0  0
    2.7726    1.3098    2.6943 H   0  0  0  0  0  0  0  0  0  0  0  0
    3.0635   -0.6475   -0.3418 H   0  0  0  0  0  0  0  0  0  0  0  0
    4.6895   -0.2523   -2.1546 H   0  0  0  0  0  0  0  0  0  0  0  0
    5.9533    1.8780   -2.2559 H   0  0  0  0  0  0  0  0  0  0  0  0
    5.5908    3.6185   -0.5283 H   0  0  0  0  0  0  0  0  0  0  0  0
    3.9560    3.2485    1.2860 H   0  0  0  0  0  0  0  0  0  0  0  0
  1  2  1  0
  2  3  1  0
  3  4  2  0
  3  5  1  0
  5  6  1  0
  6  7  1  6
  6  8  1  0
  8  9  2  0
  9 10  1  0
 10 11  2  0
 10 12  1  0
 12 13  1  0
 13 14  1  0
 14 15  1  0
 15 16  2  0
 15 17  1  0
 17 18  2  0
 18 19  1  0
 19 20  2  0
 20 21  1  0
 21 22  2  0
 22 23  1  0
 23 24  2  0
 13  6  1  0
 24 19  1  0
  1 25  1  0
  1 26  1  0
  1 27  1  0
  5 28  1  0
  5 29  1  0
  7 30  1  0
  8 31  1  0
  9 32  1  0
 12 33  1  0
 12 34  1  0
 13 35  1  0
 14 36  1  0
 17 37  1  0
 18 38  1  0
 20 39  1  0
 21 40  1  0
 22 41  1  0
 23 42  1  0
 24 43  1  0
M  END
$$$$
