
     RDKit          3D

 50 49  0  0  0  0  0  0  0  0999 V2000
    7.8399   -0.3757   -0.4565 C   0  0  0  0  0  0  0  0  0  0  0  0
    7.3063   -0.3115    0.9741 C   0  0  0  0  0  0  0  0  0  0  0  0
    6.3591    0.8782    1.2111 C   0  0  0  0  0  0  0  0  0  0  0  0
    5.0777    0.8656    0.3579 C   0  0  0  0  0  0  0  0  0  0  0  0
    4.1795   -0.3468    0.6447 C   0  0  0  0  0  0  0  0  0  0  0  0
    2.8385   -0.2227   -0.0887 C   0  0  0  0  0  0  0  0  0  0  0  0
    1.9476   -1.4450    0.1815 C   0  0  0  0  0  0  0  0  0  0  0  0
    0.6140   -1.3675   -0.5712 C   0  0  0  0  0  0  0  0  0  0  0  0
   -0.2445   -0.3042   -0.0346 C   0  0  0  0  0  0  0  0  0  0  0  0
   -0.9495    0.5696    0.4039 C   0  0  0  0  0  0  0  0  0  0  0  0
   -1.7948    1.6132    0.9252 C   0  0  0  0  0  0  0  0  0  0  0  0
   -2.7453    2.2089    0.1955 C   0  0  0  0  0  0  0  0  0  0  0  0
   -3.0434    1.8673   -1.2421 C   0  0  0  0  0  0  0  0  0  0  0  0
   -3.7555    0.5105   -1.4053 C   0  0  0  0  0  0  0  0  0  0  0  0
   -5.2743    0.5672   -1.1615 C   0  0  0  0  0  0  0  0  0  0  0  0
   -5.6394    0.6865    0.3278 C   0  0  0  0  0  0  0  0  0  0  0  0
   -7.1487    0.5472    0.5680 C   0  0  0  0  0  0  0  0  0  0  0  0
   -7.6225   -0.8560    0.3420 C   0  0  0  0  0  0  0  0  0  0  0  0
   -7.3912   -1.7465    1.2033 O   0  0  0  0  0  0  0  0  0  0  0  0
   -8.2948   -1.1813   -0.8320 O   0  0  0  0  0  0  0  0  0  0  0  0
    7.0299   -0.6468   -1.1653 H   0  0  0  0  0  0  0  0  0  0  0  0
    8.2820    0.5997   -0.7511 H   0  0  0  0  0  0  0  0  0  0  0  0
    8.6276   -1.1553   -0.5210 H   0  0  0  0  0  0  0  0  0  0  0  0
    6.8062   -1.2685    1.2318 H   0  0  0  0  0  0  0  0  0  0  0  0
    8.1725   -0.2041    1.6625 H   0  0  0  0  0  0  0  0  0  0  0  0
    6.9106    1.8216    1.0063 H   0  0  0  0  0  0  0  0  0  0  0  0
    6.0757    0.8969    2.2859 H   0  0  0  0  0  0  0  0  0  0  0  0
    5.3337    0.9025   -0.7224 H   0  0  0  0  0  0  0  0  0  0  0  0
    4.5116    1.7945    0.5900 H   0  0  0  0  0  0  0  0  0  0  0  0
    4.6874   -1.2745    0.3045 H   0  0  0  0  0  0  0  0  0  0  0  0
    3.9939   -0.4209    1.7389 H   0  0  0  0  0  0  0  0  0  0  0  0
    2.3193    0.6991    0.2542 H   0  0  0  0  0  0  0  0  0  0  0  0
    3.0244   -0.1376   -1.1823 H   0  0  0  0  0  0  0  0  0  0  0  0
    2.4813   -2.3620   -0.1519 H   0  0  0  0  0  0  0  0  0  0  0  0
    1.7560   -1.5419    1.2736 H   0  0  0  0  0  0  0  0  0  0  0  0
    0.7904   -1.1872   -1.6530 H   0  0  0  0  0  0  0  0  0  0  0  0
    0.0795   -2.3349   -0.4646 H   0  0  0  0  0  0  0  0  0  0  0  0
   -1.6360    1.9359    1.9461 H   0  0  0  0  0  0  0  0  0  0  0  0
   -3.3041    3.0184    0.6490 H   0  0  0  0  0  0  0  0  0  0  0  0
   -2.0896    1.8530   -1.8131 H   0  0  0  0  0  0  0  0  0  0  0  0
   -3.6668    2.6729   -1.6861 H   0  0  0  0  0  0  0  0  0  0  0  0
   -3.2942   -0.2682   -0.7610 H   0  0  0  0  0  0  0  0  0  0  0  0
   -3.6016    0.1799   -2.4558 H   0  0  0  0  0  0  0  0  0  0  0  0
   -5.7096   -0.3717   -1.5662 H   0  0  0  0  0  0  0  0  0  0  0  0
   -5.7214    1.4117   -1.7302 H   0  0  0  0  0  0  0  0  0  0  0  0
   -5.3350    1.6866    0.6974 H   0  0  0  0  0  0  0  0  0  0  0  0
   -5.0936   -0.0798    0.9213 H   0  0  0  0  0  0  0  0  0  0  0  0
   -7.3744    0.8325    1.6184 H   0  0  0  0  0  0  0  0  0  0  0  0
   -7.7061    1.2450   -0.0938 H   0  0  0  0  0  0  0  0  0  0  0  0
   -8.6083   -2.1287   -1.0054 H   0  0  0  0  0  0  0  0  0  0  0  0
  1  2  1  0
  2  3  1  0
  3  4  1  0
  4  5  1  0
  5  6  1  0
  6  7  1  0
  7  8  1  0
  8  9  1  0
  9 10  3  0
 10 11  1  0
 11 12  2  0
 12 13  1  0
 13 14  1  0
 14 15  1  0
 15 16  1  0
 16 17  1  0
 17 18  1  0
 18 19  2  0
 18 20  1  0
  1 21  1  0
  1 22  1  0
  1 23  1  0
  2 24  1  0
  2 25  1  0
  3 26  1  0
  3 27  1  0
  4 28  1  0
  4 29  1  0
  5 30  1  0
  5 31  1  0
  6 32  1  0
  6 33  1  0
  7 34  1  0
  7 35  1  0
  8 36  1  0
  8 37  1  0
 11 38  1  0
 12 39  1  0
 13 40  1  0
 13 41  1  0
 14 42  1  0
 14 43  1  0
 15 44  1  0
 15 45  1  0
 16 46  1  0
 16 47  1  0
 17 48  1  0
 17 49  1  0
 20 50  1  0
M  END
$$$$
